*SPEF "ieee 1481-1999"
*DESIGN "user_project_wrapper"
*DATE "11:11:11 Fri 11 11, 1111"
*VENDOR "OpenRCX"
*PROGRAM "Parallel Extraction"
*VERSION "1.0"
*DESIGN_FLOW "NAME_SCOPE LOCAL" "PIN_CAP NONE"
*DIVIDER /
*DELIMITER :
*BUS_DELIMITER []
*T_UNIT 1 NS
*C_UNIT 1 PF
*R_UNIT 1 OHM
*L_UNIT 1 HENRY

*NAME_MAP
*1 io_in[0]
*2 io_in[10]
*3 io_in[11]
*4 io_in[12]
*5 io_in[13]
*6 io_in[14]
*7 io_in[15]
*8 io_in[16]
*9 io_in[17]
*10 io_in[18]
*11 io_in[19]
*12 io_in[1]
*13 io_in[20]
*14 io_in[21]
*15 io_in[22]
*16 io_in[23]
*17 io_in[24]
*18 io_in[25]
*19 io_in[26]
*20 io_in[27]
*21 io_in[28]
*22 io_in[29]
*23 io_in[2]
*24 io_in[30]
*25 io_in[31]
*26 io_in[32]
*27 io_in[33]
*28 io_in[34]
*29 io_in[35]
*30 io_in[36]
*31 io_in[37]
*32 io_in[3]
*33 io_in[4]
*34 io_in[5]
*35 io_in[6]
*36 io_in[7]
*37 io_in[8]
*38 io_in[9]
*39 io_oeb[0]
*40 io_oeb[10]
*41 io_oeb[11]
*42 io_oeb[12]
*43 io_oeb[13]
*44 io_oeb[14]
*45 io_oeb[15]
*46 io_oeb[16]
*47 io_oeb[17]
*48 io_oeb[18]
*49 io_oeb[19]
*50 io_oeb[1]
*51 io_oeb[20]
*52 io_oeb[21]
*53 io_oeb[22]
*54 io_oeb[23]
*55 io_oeb[24]
*56 io_oeb[25]
*57 io_oeb[26]
*58 io_oeb[27]
*59 io_oeb[28]
*60 io_oeb[29]
*61 io_oeb[2]
*62 io_oeb[30]
*63 io_oeb[31]
*64 io_oeb[32]
*65 io_oeb[33]
*66 io_oeb[34]
*67 io_oeb[35]
*68 io_oeb[36]
*69 io_oeb[37]
*70 io_oeb[3]
*71 io_oeb[4]
*72 io_oeb[5]
*73 io_oeb[6]
*74 io_oeb[7]
*75 io_oeb[8]
*76 io_oeb[9]
*77 io_out[0]
*78 io_out[10]
*79 io_out[11]
*80 io_out[12]
*81 io_out[13]
*82 io_out[14]
*83 io_out[15]
*84 io_out[16]
*85 io_out[17]
*86 io_out[18]
*87 io_out[19]
*88 io_out[1]
*89 io_out[20]
*90 io_out[21]
*91 io_out[22]
*92 io_out[23]
*93 io_out[24]
*94 io_out[25]
*95 io_out[26]
*96 io_out[27]
*97 io_out[28]
*98 io_out[29]
*99 io_out[2]
*100 io_out[30]
*101 io_out[31]
*102 io_out[32]
*103 io_out[33]
*104 io_out[34]
*105 io_out[35]
*106 io_out[36]
*107 io_out[37]
*108 io_out[3]
*109 io_out[4]
*110 io_out[5]
*111 io_out[6]
*112 io_out[7]
*113 io_out[8]
*114 io_out[9]
*115 la_data_in[0]
*116 la_data_in[10]
*117 la_data_in[11]
*118 la_data_in[12]
*119 la_data_in[13]
*120 la_data_in[14]
*121 la_data_in[15]
*122 la_data_in[16]
*123 la_data_in[17]
*124 la_data_in[18]
*125 la_data_in[19]
*126 la_data_in[1]
*127 la_data_in[20]
*128 la_data_in[21]
*129 la_data_in[22]
*130 la_data_in[23]
*131 la_data_in[24]
*132 la_data_in[25]
*133 la_data_in[26]
*134 la_data_in[27]
*135 la_data_in[28]
*136 la_data_in[29]
*137 la_data_in[2]
*138 la_data_in[30]
*139 la_data_in[31]
*140 la_data_in[32]
*141 la_data_in[33]
*142 la_data_in[34]
*143 la_data_in[35]
*144 la_data_in[36]
*145 la_data_in[37]
*146 la_data_in[38]
*147 la_data_in[39]
*148 la_data_in[3]
*149 la_data_in[40]
*150 la_data_in[41]
*151 la_data_in[42]
*152 la_data_in[43]
*153 la_data_in[44]
*154 la_data_in[45]
*155 la_data_in[46]
*156 la_data_in[47]
*157 la_data_in[48]
*158 la_data_in[49]
*159 la_data_in[4]
*160 la_data_in[50]
*161 la_data_in[51]
*162 la_data_in[52]
*163 la_data_in[53]
*164 la_data_in[54]
*165 la_data_in[55]
*166 la_data_in[56]
*167 la_data_in[57]
*168 la_data_in[58]
*169 la_data_in[59]
*170 la_data_in[5]
*171 la_data_in[60]
*172 la_data_in[61]
*173 la_data_in[62]
*174 la_data_in[63]
*175 la_data_in[6]
*176 la_data_in[7]
*177 la_data_in[8]
*178 la_data_in[9]
*179 la_data_out[0]
*180 la_data_out[10]
*181 la_data_out[11]
*182 la_data_out[12]
*183 la_data_out[13]
*184 la_data_out[14]
*185 la_data_out[15]
*186 la_data_out[16]
*187 la_data_out[17]
*188 la_data_out[18]
*189 la_data_out[19]
*190 la_data_out[1]
*191 la_data_out[20]
*192 la_data_out[21]
*193 la_data_out[22]
*194 la_data_out[23]
*195 la_data_out[24]
*196 la_data_out[25]
*197 la_data_out[26]
*198 la_data_out[27]
*199 la_data_out[28]
*200 la_data_out[29]
*201 la_data_out[2]
*202 la_data_out[30]
*203 la_data_out[31]
*204 la_data_out[32]
*205 la_data_out[33]
*206 la_data_out[34]
*207 la_data_out[35]
*208 la_data_out[36]
*209 la_data_out[37]
*210 la_data_out[38]
*211 la_data_out[39]
*212 la_data_out[3]
*213 la_data_out[40]
*214 la_data_out[41]
*215 la_data_out[42]
*216 la_data_out[43]
*217 la_data_out[44]
*218 la_data_out[45]
*219 la_data_out[46]
*220 la_data_out[47]
*221 la_data_out[48]
*222 la_data_out[49]
*223 la_data_out[4]
*224 la_data_out[50]
*225 la_data_out[51]
*226 la_data_out[52]
*227 la_data_out[53]
*228 la_data_out[54]
*229 la_data_out[55]
*230 la_data_out[56]
*231 la_data_out[57]
*232 la_data_out[58]
*233 la_data_out[59]
*234 la_data_out[5]
*235 la_data_out[60]
*236 la_data_out[61]
*237 la_data_out[62]
*238 la_data_out[63]
*239 la_data_out[6]
*240 la_data_out[7]
*241 la_data_out[8]
*242 la_data_out[9]
*243 la_oenb[0]
*244 la_oenb[10]
*245 la_oenb[11]
*246 la_oenb[12]
*247 la_oenb[13]
*248 la_oenb[14]
*249 la_oenb[15]
*250 la_oenb[16]
*251 la_oenb[17]
*252 la_oenb[18]
*253 la_oenb[19]
*254 la_oenb[1]
*255 la_oenb[20]
*256 la_oenb[21]
*257 la_oenb[22]
*258 la_oenb[23]
*259 la_oenb[24]
*260 la_oenb[25]
*261 la_oenb[26]
*262 la_oenb[27]
*263 la_oenb[28]
*264 la_oenb[29]
*265 la_oenb[2]
*266 la_oenb[30]
*267 la_oenb[31]
*268 la_oenb[32]
*269 la_oenb[33]
*270 la_oenb[34]
*271 la_oenb[35]
*272 la_oenb[36]
*273 la_oenb[37]
*274 la_oenb[38]
*275 la_oenb[39]
*276 la_oenb[3]
*277 la_oenb[40]
*278 la_oenb[41]
*279 la_oenb[42]
*280 la_oenb[43]
*281 la_oenb[44]
*282 la_oenb[45]
*283 la_oenb[46]
*284 la_oenb[47]
*285 la_oenb[48]
*286 la_oenb[49]
*287 la_oenb[4]
*288 la_oenb[50]
*289 la_oenb[51]
*290 la_oenb[52]
*291 la_oenb[53]
*292 la_oenb[54]
*293 la_oenb[55]
*294 la_oenb[56]
*295 la_oenb[57]
*296 la_oenb[58]
*297 la_oenb[59]
*298 la_oenb[5]
*299 la_oenb[60]
*300 la_oenb[61]
*301 la_oenb[62]
*302 la_oenb[63]
*303 la_oenb[6]
*304 la_oenb[7]
*305 la_oenb[8]
*306 la_oenb[9]
*307 user_clock2
*308 user_irq[0]
*309 user_irq[1]
*310 user_irq[2]
*313 wb_clk_i
*314 wb_rst_i
*315 wbs_ack_o
*316 wbs_adr_i[0]
*317 wbs_adr_i[10]
*318 wbs_adr_i[11]
*319 wbs_adr_i[12]
*320 wbs_adr_i[13]
*321 wbs_adr_i[14]
*322 wbs_adr_i[15]
*323 wbs_adr_i[16]
*324 wbs_adr_i[17]
*325 wbs_adr_i[18]
*326 wbs_adr_i[19]
*327 wbs_adr_i[1]
*328 wbs_adr_i[20]
*329 wbs_adr_i[21]
*330 wbs_adr_i[22]
*331 wbs_adr_i[23]
*332 wbs_adr_i[24]
*333 wbs_adr_i[25]
*334 wbs_adr_i[26]
*335 wbs_adr_i[27]
*336 wbs_adr_i[28]
*337 wbs_adr_i[29]
*338 wbs_adr_i[2]
*339 wbs_adr_i[30]
*340 wbs_adr_i[31]
*341 wbs_adr_i[3]
*342 wbs_adr_i[4]
*343 wbs_adr_i[5]
*344 wbs_adr_i[6]
*345 wbs_adr_i[7]
*346 wbs_adr_i[8]
*347 wbs_adr_i[9]
*348 wbs_cyc_i
*349 wbs_dat_i[0]
*350 wbs_dat_i[10]
*351 wbs_dat_i[11]
*352 wbs_dat_i[12]
*353 wbs_dat_i[13]
*354 wbs_dat_i[14]
*355 wbs_dat_i[15]
*356 wbs_dat_i[16]
*357 wbs_dat_i[17]
*358 wbs_dat_i[18]
*359 wbs_dat_i[19]
*360 wbs_dat_i[1]
*361 wbs_dat_i[20]
*362 wbs_dat_i[21]
*363 wbs_dat_i[22]
*364 wbs_dat_i[23]
*365 wbs_dat_i[24]
*366 wbs_dat_i[25]
*367 wbs_dat_i[26]
*368 wbs_dat_i[27]
*369 wbs_dat_i[28]
*370 wbs_dat_i[29]
*371 wbs_dat_i[2]
*372 wbs_dat_i[30]
*373 wbs_dat_i[31]
*374 wbs_dat_i[3]
*375 wbs_dat_i[4]
*376 wbs_dat_i[5]
*377 wbs_dat_i[6]
*378 wbs_dat_i[7]
*379 wbs_dat_i[8]
*380 wbs_dat_i[9]
*381 wbs_dat_o[0]
*382 wbs_dat_o[10]
*383 wbs_dat_o[11]
*384 wbs_dat_o[12]
*385 wbs_dat_o[13]
*386 wbs_dat_o[14]
*387 wbs_dat_o[15]
*388 wbs_dat_o[16]
*389 wbs_dat_o[17]
*390 wbs_dat_o[18]
*391 wbs_dat_o[19]
*392 wbs_dat_o[1]
*393 wbs_dat_o[20]
*394 wbs_dat_o[21]
*395 wbs_dat_o[22]
*396 wbs_dat_o[23]
*397 wbs_dat_o[24]
*398 wbs_dat_o[25]
*399 wbs_dat_o[26]
*400 wbs_dat_o[27]
*401 wbs_dat_o[28]
*402 wbs_dat_o[29]
*403 wbs_dat_o[2]
*404 wbs_dat_o[30]
*405 wbs_dat_o[31]
*406 wbs_dat_o[3]
*407 wbs_dat_o[4]
*408 wbs_dat_o[5]
*409 wbs_dat_o[6]
*410 wbs_dat_o[7]
*411 wbs_dat_o[8]
*412 wbs_dat_o[9]
*413 wbs_sel_i[0]
*414 wbs_sel_i[1]
*415 wbs_sel_i[2]
*416 wbs_sel_i[3]
*417 wbs_stb_i
*418 wbs_we_i
*419 j1a

*PORTS
io_in[0] I
io_in[10] I
io_in[11] I
io_in[12] I
io_in[13] I
io_in[14] I
io_in[15] I
io_in[16] I
io_in[17] I
io_in[18] I
io_in[19] I
io_in[1] I
io_in[20] I
io_in[21] I
io_in[22] I
io_in[23] I
io_in[24] I
io_in[25] I
io_in[26] I
io_in[27] I
io_in[28] I
io_in[29] I
io_in[2] I
io_in[30] I
io_in[31] I
io_in[32] I
io_in[33] I
io_in[34] I
io_in[35] I
io_in[36] I
io_in[37] I
io_in[3] I
io_in[4] I
io_in[5] I
io_in[6] I
io_in[7] I
io_in[8] I
io_in[9] I
io_oeb[0] O
io_oeb[10] O
io_oeb[11] O
io_oeb[12] O
io_oeb[13] O
io_oeb[14] O
io_oeb[15] O
io_oeb[16] O
io_oeb[17] O
io_oeb[18] O
io_oeb[19] O
io_oeb[1] O
io_oeb[20] O
io_oeb[21] O
io_oeb[22] O
io_oeb[23] O
io_oeb[24] O
io_oeb[25] O
io_oeb[26] O
io_oeb[27] O
io_oeb[28] O
io_oeb[29] O
io_oeb[2] O
io_oeb[30] O
io_oeb[31] O
io_oeb[32] O
io_oeb[33] O
io_oeb[34] O
io_oeb[35] O
io_oeb[36] O
io_oeb[37] O
io_oeb[3] O
io_oeb[4] O
io_oeb[5] O
io_oeb[6] O
io_oeb[7] O
io_oeb[8] O
io_oeb[9] O
io_out[0] O
io_out[10] O
io_out[11] O
io_out[12] O
io_out[13] O
io_out[14] O
io_out[15] O
io_out[16] O
io_out[17] O
io_out[18] O
io_out[19] O
io_out[1] O
io_out[20] O
io_out[21] O
io_out[22] O
io_out[23] O
io_out[24] O
io_out[25] O
io_out[26] O
io_out[27] O
io_out[28] O
io_out[29] O
io_out[2] O
io_out[30] O
io_out[31] O
io_out[32] O
io_out[33] O
io_out[34] O
io_out[35] O
io_out[36] O
io_out[37] O
io_out[3] O
io_out[4] O
io_out[5] O
io_out[6] O
io_out[7] O
io_out[8] O
io_out[9] O
la_data_in[0] I
la_data_in[10] I
la_data_in[11] I
la_data_in[12] I
la_data_in[13] I
la_data_in[14] I
la_data_in[15] I
la_data_in[16] I
la_data_in[17] I
la_data_in[18] I
la_data_in[19] I
la_data_in[1] I
la_data_in[20] I
la_data_in[21] I
la_data_in[22] I
la_data_in[23] I
la_data_in[24] I
la_data_in[25] I
la_data_in[26] I
la_data_in[27] I
la_data_in[28] I
la_data_in[29] I
la_data_in[2] I
la_data_in[30] I
la_data_in[31] I
la_data_in[32] I
la_data_in[33] I
la_data_in[34] I
la_data_in[35] I
la_data_in[36] I
la_data_in[37] I
la_data_in[38] I
la_data_in[39] I
la_data_in[3] I
la_data_in[40] I
la_data_in[41] I
la_data_in[42] I
la_data_in[43] I
la_data_in[44] I
la_data_in[45] I
la_data_in[46] I
la_data_in[47] I
la_data_in[48] I
la_data_in[49] I
la_data_in[4] I
la_data_in[50] I
la_data_in[51] I
la_data_in[52] I
la_data_in[53] I
la_data_in[54] I
la_data_in[55] I
la_data_in[56] I
la_data_in[57] I
la_data_in[58] I
la_data_in[59] I
la_data_in[5] I
la_data_in[60] I
la_data_in[61] I
la_data_in[62] I
la_data_in[63] I
la_data_in[6] I
la_data_in[7] I
la_data_in[8] I
la_data_in[9] I
la_data_out[0] O
la_data_out[10] O
la_data_out[11] O
la_data_out[12] O
la_data_out[13] O
la_data_out[14] O
la_data_out[15] O
la_data_out[16] O
la_data_out[17] O
la_data_out[18] O
la_data_out[19] O
la_data_out[1] O
la_data_out[20] O
la_data_out[21] O
la_data_out[22] O
la_data_out[23] O
la_data_out[24] O
la_data_out[25] O
la_data_out[26] O
la_data_out[27] O
la_data_out[28] O
la_data_out[29] O
la_data_out[2] O
la_data_out[30] O
la_data_out[31] O
la_data_out[32] O
la_data_out[33] O
la_data_out[34] O
la_data_out[35] O
la_data_out[36] O
la_data_out[37] O
la_data_out[38] O
la_data_out[39] O
la_data_out[3] O
la_data_out[40] O
la_data_out[41] O
la_data_out[42] O
la_data_out[43] O
la_data_out[44] O
la_data_out[45] O
la_data_out[46] O
la_data_out[47] O
la_data_out[48] O
la_data_out[49] O
la_data_out[4] O
la_data_out[50] O
la_data_out[51] O
la_data_out[52] O
la_data_out[53] O
la_data_out[54] O
la_data_out[55] O
la_data_out[56] O
la_data_out[57] O
la_data_out[58] O
la_data_out[59] O
la_data_out[5] O
la_data_out[60] O
la_data_out[61] O
la_data_out[62] O
la_data_out[63] O
la_data_out[6] O
la_data_out[7] O
la_data_out[8] O
la_data_out[9] O
la_oenb[0] I
la_oenb[10] I
la_oenb[11] I
la_oenb[12] I
la_oenb[13] I
la_oenb[14] I
la_oenb[15] I
la_oenb[16] I
la_oenb[17] I
la_oenb[18] I
la_oenb[19] I
la_oenb[1] I
la_oenb[20] I
la_oenb[21] I
la_oenb[22] I
la_oenb[23] I
la_oenb[24] I
la_oenb[25] I
la_oenb[26] I
la_oenb[27] I
la_oenb[28] I
la_oenb[29] I
la_oenb[2] I
la_oenb[30] I
la_oenb[31] I
la_oenb[32] I
la_oenb[33] I
la_oenb[34] I
la_oenb[35] I
la_oenb[36] I
la_oenb[37] I
la_oenb[38] I
la_oenb[39] I
la_oenb[3] I
la_oenb[40] I
la_oenb[41] I
la_oenb[42] I
la_oenb[43] I
la_oenb[44] I
la_oenb[45] I
la_oenb[46] I
la_oenb[47] I
la_oenb[48] I
la_oenb[49] I
la_oenb[4] I
la_oenb[50] I
la_oenb[51] I
la_oenb[52] I
la_oenb[53] I
la_oenb[54] I
la_oenb[55] I
la_oenb[56] I
la_oenb[57] I
la_oenb[58] I
la_oenb[59] I
la_oenb[5] I
la_oenb[60] I
la_oenb[61] I
la_oenb[62] I
la_oenb[63] I
la_oenb[6] I
la_oenb[7] I
la_oenb[8] I
la_oenb[9] I
user_clock2 I
user_irq[0] O
user_irq[1] O
user_irq[2] O
wb_clk_i I
wb_rst_i I
wbs_ack_o O
wbs_adr_i[0] I
wbs_adr_i[10] I
wbs_adr_i[11] I
wbs_adr_i[12] I
wbs_adr_i[13] I
wbs_adr_i[14] I
wbs_adr_i[15] I
wbs_adr_i[16] I
wbs_adr_i[17] I
wbs_adr_i[18] I
wbs_adr_i[19] I
wbs_adr_i[1] I
wbs_adr_i[20] I
wbs_adr_i[21] I
wbs_adr_i[22] I
wbs_adr_i[23] I
wbs_adr_i[24] I
wbs_adr_i[25] I
wbs_adr_i[26] I
wbs_adr_i[27] I
wbs_adr_i[28] I
wbs_adr_i[29] I
wbs_adr_i[2] I
wbs_adr_i[30] I
wbs_adr_i[31] I
wbs_adr_i[3] I
wbs_adr_i[4] I
wbs_adr_i[5] I
wbs_adr_i[6] I
wbs_adr_i[7] I
wbs_adr_i[8] I
wbs_adr_i[9] I
wbs_cyc_i I
wbs_dat_i[0] I
wbs_dat_i[10] I
wbs_dat_i[11] I
wbs_dat_i[12] I
wbs_dat_i[13] I
wbs_dat_i[14] I
wbs_dat_i[15] I
wbs_dat_i[16] I
wbs_dat_i[17] I
wbs_dat_i[18] I
wbs_dat_i[19] I
wbs_dat_i[1] I
wbs_dat_i[20] I
wbs_dat_i[21] I
wbs_dat_i[22] I
wbs_dat_i[23] I
wbs_dat_i[24] I
wbs_dat_i[25] I
wbs_dat_i[26] I
wbs_dat_i[27] I
wbs_dat_i[28] I
wbs_dat_i[29] I
wbs_dat_i[2] I
wbs_dat_i[30] I
wbs_dat_i[31] I
wbs_dat_i[3] I
wbs_dat_i[4] I
wbs_dat_i[5] I
wbs_dat_i[6] I
wbs_dat_i[7] I
wbs_dat_i[8] I
wbs_dat_i[9] I
wbs_dat_o[0] O
wbs_dat_o[10] O
wbs_dat_o[11] O
wbs_dat_o[12] O
wbs_dat_o[13] O
wbs_dat_o[14] O
wbs_dat_o[15] O
wbs_dat_o[16] O
wbs_dat_o[17] O
wbs_dat_o[18] O
wbs_dat_o[19] O
wbs_dat_o[1] O
wbs_dat_o[20] O
wbs_dat_o[21] O
wbs_dat_o[22] O
wbs_dat_o[23] O
wbs_dat_o[24] O
wbs_dat_o[25] O
wbs_dat_o[26] O
wbs_dat_o[27] O
wbs_dat_o[28] O
wbs_dat_o[29] O
wbs_dat_o[2] O
wbs_dat_o[30] O
wbs_dat_o[31] O
wbs_dat_o[3] O
wbs_dat_o[4] O
wbs_dat_o[5] O
wbs_dat_o[6] O
wbs_dat_o[7] O
wbs_dat_o[8] O
wbs_dat_o[9] O
wbs_sel_i[0] I
wbs_sel_i[1] I
wbs_sel_i[2] I
wbs_sel_i[3] I
wbs_stb_i I
wbs_we_i I

*D_NET *15 0.240782
*CONN
*P io_in[22] I
*I *419:tck I *D J1Asic
*CAP
1 io_in[22] 0.00125242
2 *419:tck 0
3 *15:23 0.00268131
4 *15:13 0.112349
5 *15:11 0.11092
6 *15:11 *53:20 0.000197062
7 *15:23 *419:tdi 1.82045e-05
8 *15:23 *17:13 0
9 *15:23 *52:10 0.0133643
*RES
1 io_in[22] *15:11 17.93 
2 *15:11 *15:13 794.884 
3 *15:13 *15:23 49.068 
4 *15:23 *419:tck 4.5 
*END

*D_NET *16 0.213782
*CONN
*P io_in[23] I
*I *419:tms I *D J1Asic
*CAP
1 io_in[23] 0.00102104
2 *419:tms 8.44848e-05
3 *16:13 0.0539637
4 *16:11 0.0538792
5 *16:9 0.00823004
6 *16:7 0.00925108
7 *16:13 io_oeb[23] 0.00862933
8 *16:13 *419:extInt[0] 0.065214
9 *16:13 *17:9 0
10 *16:13 *28:9 0.00404302
11 *16:13 *62:13 0.00379053
12 *16:13 *64:10 0.00567533
*RES
1 io_in[23] *16:7 11.53 
2 *16:7 *16:9 59.052 
3 *16:9 *16:11 4.5 
4 *16:11 *16:13 609.444 
5 *16:13 *419:tms 4.994 
*END

*D_NET *17 0.524613
*CONN
*P io_in[24] I
*I *419:tdi I *D J1Asic
*CAP
1 io_in[24] 0.00213338
2 *419:tdi 0.000463794
3 *17:13 0.0141602
4 *17:11 0.0136964
5 *17:9 0.066897
6 *17:7 0.0690303
7 *17:9 io_oeb[23] 0.104197
8 *17:9 *26:9 0.0318238
9 *17:9 *62:13 0.164568
10 *17:13 *18:13 0.0126166
11 *17:13 *21:13 0.0322269
12 *17:13 *51:27 0.0127819
13 *17:13 *52:10 0
14 *15:23 *419:tdi 1.82045e-05
15 *15:23 *17:13 0
16 *16:13 *17:9 0
*RES
1 io_in[24] *17:7 18.826 
2 *17:7 *17:9 789.412 
3 *17:9 *17:11 4.5 
4 *17:11 *17:13 186.732 
5 *17:13 *419:tdi 16.16 
*END

*D_NET *18 0.424847
*CONN
*P io_in[25] I
*I *419:rx I *D J1Asic
*CAP
1 io_in[25] 0.00118458
2 *419:rx 0.000552485
3 *18:13 0.0399577
4 *18:11 0.0394053
5 *18:9 0.135627
6 *18:7 0.136811
7 *18:9 *29:15 0.000944771
8 *18:13 *21:13 0.0163796
9 *18:13 *24:13 0.0127026
10 *18:13 *25:13 0.0169023
11 *18:13 *51:27 0.0117629
12 *17:13 *18:13 0.0126166
*RES
1 io_in[25] *18:7 12.442 
2 *18:7 *18:9 731.541 
3 *18:9 *18:11 4.5 
4 *18:11 *18:13 133.941 
5 *18:13 *419:rx 16.5753 
*END

*D_NET *19 0.222796
*CONN
*P io_in[26] I
*I *419:extInt[0] I *D J1Asic
*CAP
1 io_in[26] 0.00242281
2 *419:extInt[0] 0.050806
3 *19:7 0.0532288
4 *419:extInt[0] *419:extInt[1] 0.000711472
5 *419:extInt[0] *20:9 0.0442692
6 *419:extInt[0] *28:9 0.00614341
7 *16:13 *419:extInt[0] 0.065214
*RES
1 io_in[26] *19:7 20.346 
2 *19:7 *419:extInt[0] 676.894 
*END

*D_NET *20 0.191981
*CONN
*P io_in[27] I
*I *419:extInt[1] I *D J1Asic
*CAP
1 io_in[27] 0.00301051
2 *419:extInt[1] 0.00302592
3 *20:9 0.0704879
4 *20:7 0.0704725
5 *419:extInt[1] *314:7 3.57829e-06
6 *419:extInt[0] *419:extInt[1] 0.000711472
7 *419:extInt[0] *20:9 0.0442692
*RES
1 io_in[27] *20:7 21.106 
2 *20:7 *20:9 597.208 
3 *20:9 *419:extInt[1] 22.534 
*END

*D_NET *21 0.493592
*CONN
*P io_in[28] I
*I *419:extInt[2] I *D J1Asic
*CAP
1 io_in[28] 0.00134462
2 *419:extInt[2] 0.000522312
3 *21:13 0.00218263
4 *21:11 0.00166032
5 *21:9 0.0840381
6 *21:7 0.0853827
7 *21:9 io_oeb[37] 0.00146456
8 *21:9 *29:9 0.0522442
9 *21:9 *29:15 0.00146362
10 *21:9 *58:13 0
11 *21:9 *104:10 0
12 *21:9 *105:10 0
13 *21:13 *25:13 0.140555
14 *21:13 *51:27 0.0741276
15 *17:13 *21:13 0.0322269
16 *18:13 *21:13 0.0163796
*RES
1 io_in[28] *21:7 11.986 
2 *21:7 *21:9 559.284 
3 *21:9 *21:11 4.5 
4 *21:11 *21:13 340.404 
5 *21:13 *419:extInt[2] 16.464 
*END

*D_NET *22 0.467404
*CONN
*P io_in[29] I
*I *419:boardClkLocked I *D J1Asic
*CAP
1 io_in[29] 0.00146475
2 *419:boardClkLocked 0.000177192
3 *22:13 0.000680852
4 *22:11 0.00050366
5 *22:9 0.0456046
6 *22:7 0.0470694
7 *22:9 *25:9 0.156608
8 *22:9 *56:19 0.0484115
9 *22:9 *101:13 0.000800551
10 *22:13 *29:17 3.08245e-05
11 *22:13 *30:13 0.000384418
12 *22:13 *31:13 0.0817069
13 *22:13 *53:12 0.00124431
14 *22:13 *66:9 0.0827171
*RES
1 io_in[29] *22:7 14.266 
2 *22:7 *22:9 506.236 
3 *22:9 *22:11 4.5 
4 *22:11 *22:13 199.5 
5 *22:13 *419:boardClkLocked 5.298 
*END

*D_NET *24 0.442716
*CONN
*P io_in[30] I
*I *419:pmodA_read[0] I *D J1Asic
*CAP
1 io_in[30] 0.00182253
2 *419:pmodA_read[0] 0.000526164
3 *24:13 0.026766
4 *24:11 0.0262398
5 *24:9 0.0491052
6 *24:7 0.0509278
7 *24:9 *27:9 0
8 *24:9 *102:13 0.11776
9 *24:13 *25:13 0.156866
10 *18:13 *24:13 0.0127026
*RES
1 io_in[30] *24:7 16.546 
2 *24:7 *24:9 444.068 
3 *24:9 *24:11 4.5 
4 *24:11 *24:13 376.884 
5 *24:13 *419:pmodA_read[0] 16.616 
*END

*D_NET *25 0.6499
*CONN
*P io_in[31] I
*I *419:pmodA_read[1] I *D J1Asic
*CAP
1 io_in[31] 0.00152885
2 *419:pmodA_read[1] 0.000491707
3 *25:13 0.00312899
4 *25:11 0.00263729
5 *25:9 0.00155975
6 *25:7 0.00308861
7 *25:9 *56:19 0.014252
8 *25:9 *101:13 0.148845
9 *25:13 *51:27 0.00343648
10 *18:13 *25:13 0.0169023
11 *21:13 *25:13 0.140555
12 *22:9 *25:9 0.156608
13 *24:13 *25:13 0.156866
*RES
1 io_in[31] *25:7 14.418 
2 *25:7 *25:9 386.764 
3 *25:9 *25:11 4.5 
4 *25:11 *25:13 380.836 
5 *25:13 *419:pmodA_read[1] 16.464 
*END

*D_NET *26 0.437402
*CONN
*P io_in[32] I
*I *419:pmodA_read[2] I *D J1Asic
*CAP
1 io_in[32] 0.00227685
2 *419:pmodA_read[2] 0.000159142
3 *26:13 0.0399446
4 *26:11 0.0397855
5 *26:9 0.0363513
6 *26:7 0.0386282
7 *26:9 *60:19 0.0598615
8 *26:9 *62:13 0.00424832
9 *26:9 *64:10 0.00537456
10 *26:13 *28:13 0.00590524
11 *26:13 *29:17 0.00619387
12 *26:13 *30:13 0.00553048
13 *26:13 *31:13 0.00504741
14 *26:13 *53:12 0.108063
15 *26:13 *56:15 0
16 *26:13 *60:15 0
17 *26:13 *64:6 0.0195159
18 *26:13 *68:6 0.0143943
19 *26:13 *105:6 0.0139277
20 *26:13 *314:17 0.000370364
21 *17:9 *26:9 0.0318238
*RES
1 io_in[32] *26:7 18.826 
2 *26:7 *26:9 333.013 
3 *26:9 *26:11 4.5 
4 *26:11 *26:13 153.923 
5 *26:13 *419:pmodA_read[2] 14.317 
*END

*D_NET *27 0.430692
*CONN
*P io_in[33] I
*I *419:pmodA_read[3] I *D J1Asic
*CAP
1 io_in[33] 0.00167384
2 *419:pmodA_read[3] 0.000444277
3 *27:13 0.00131057
4 *27:11 0.000866292
5 *27:9 0.0232918
6 *27:7 0.0249656
7 *27:9 *63:13 0.0543092
8 *27:9 *101:13 8.0352e-06
9 *27:9 *102:13 0
10 *27:13 *56:15 0.00665708
11 *27:13 *60:15 0.00117249
12 *27:13 *69:9 0.000268807
13 *27:13 *90:15 0.00825756
14 *27:13 *100:9 0.153175
15 *27:13 *101:9 0.00076019
16 *27:13 *102:9 0.153531
17 *24:9 *27:9 0
*RES
1 io_in[33] *27:7 15.178 
2 *27:7 *27:9 278.236 
3 *27:9 *27:11 4.5 
4 *27:11 *27:13 372.78 
5 *27:13 *419:pmodA_read[3] 7.122 
*END

*D_NET *28 0.398127
*CONN
*P io_in[34] I
*I *419:pmodA_read[4] I *D J1Asic
*CAP
1 io_in[34] 0.00243101
2 *419:pmodA_read[4] 6.00672e-05
3 *28:13 0.000812851
4 *28:11 0.000752783
5 *28:9 0.0135559
6 *28:7 0.0159869
7 *419:pmodA_read[4] *62:7 6.78067e-06
8 *28:9 *64:10 0.0377625
9 *28:9 *100:17 0.0103832
10 *28:13 *419:pmodA_read[5] 0.00140145
11 *28:13 *29:17 0.14426
12 *28:13 *30:13 0.145172
13 *28:13 *53:12 0.00874212
14 *28:13 *64:6 0.000127186
15 *28:13 *66:9 0.000579836
16 *419:extInt[0] *28:9 0.00614341
17 *16:13 *28:9 0.00404302
18 *26:13 *28:13 0.00590524
*RES
1 io_in[34] *28:7 19.434 
2 *28:7 *28:9 218.5 
3 *28:9 *28:11 4.5 
4 *28:11 *28:13 354.844 
5 *28:13 *419:pmodA_read[4] 4.842 
*END

*D_NET *29 0.34072
*CONN
*P io_in[35] I
*I *419:pmodA_read[5] I *D J1Asic
*CAP
1 io_in[35] 0.00121151
2 *419:pmodA_read[5] 6.76812e-05
3 *29:17 0.00179081
4 *29:15 0.00457042
5 *29:9 0.0159921
6 *29:7 0.0143563
7 *419:pmodA_read[5] *53:12 0.000316611
8 *419:pmodA_read[5] *64:6 0.00284028
9 *29:15 io_oeb[37] 0.00123427
10 *29:17 *30:13 0.000843066
11 *29:17 *53:12 0.0103009
12 *29:17 *64:6 0.0644605
13 *29:17 *66:9 0.00015555
14 *29:17 *68:6 0.000812459
15 *29:17 *314:17 0.0152283
16 *18:9 *29:15 0.000944771
17 *21:9 *29:9 0.0522442
18 *21:9 *29:15 0.00146362
19 *22:13 *29:17 3.08245e-05
20 *26:13 *29:17 0.00619387
21 *28:13 *419:pmodA_read[5] 0.00140145
22 *28:13 *29:17 0.14426
*RES
1 io_in[35] *29:7 12.138 
2 *29:7 *29:9 137.56 
3 *29:9 *29:15 28.288 
4 *29:15 *29:17 354.16 
5 *29:17 *419:pmodA_read[5] 11.568 
*END

*D_NET *30 0.39786
*CONN
*P io_in[36] I
*I *419:pmodA_read[6] I *D J1Asic
*CAP
1 io_in[36] 0.00162617
2 *419:pmodA_read[6] 9.94247e-05
3 *30:13 0.000875549
4 *30:11 0.000776124
5 *30:9 0.0001091
6 *30:7 0.00173527
7 *419:pmodA_read[6] *419:pmodA_read[7] 7.1314e-06
8 *30:9 *56:19 0.00316907
9 *30:9 *63:13 0.0419146
10 *30:9 *101:13 0.0419217
11 *30:13 *31:13 0.145808
12 *30:13 *53:12 0.00775242
13 *30:13 *66:9 0.000134994
14 *22:13 *30:13 0.000384418
15 *26:13 *30:13 0.00553048
16 *28:13 *30:13 0.145172
17 *29:17 *30:13 0.000843066
*RES
1 io_in[36] *30:7 14.722 
2 *30:7 *30:9 103.74 
3 *30:9 *30:11 4.5 
4 *30:11 *30:13 354.084 
5 *30:13 *419:pmodA_read[6] 4.994 
*END

*D_NET *31 0.304722
*CONN
*P io_in[37] I
*I *419:pmodA_read[7] I *D J1Asic
*CAP
1 io_in[37] 0.0020448
2 *419:pmodA_read[7] 0.000134116
3 *31:13 0.00106346
4 *31:11 0.000929348
5 *31:9 0.0045139
6 *31:7 0.00655869
7 *31:9 *102:13 0.0175747
8 *31:13 *53:12 0.00728147
9 *31:13 *66:9 0.0320518
10 *419:pmodA_read[6] *419:pmodA_read[7] 7.1314e-06
11 *22:13 *31:13 0.0817069
12 *26:13 *31:13 0.00504741
13 *30:13 *31:13 0.145808
*RES
1 io_in[37] *31:7 16.85 
2 *31:7 *31:9 46.436 
3 *31:9 *31:11 4.5 
4 *31:11 *31:13 351.044 
5 *31:13 *419:pmodA_read[7] 5.146 
*END

*D_NET *51 0.610738
*CONN
*P io_oeb[20] O
*I *419:io_oeb_low[0] O *D J1Asic
*CAP
1 io_oeb[20] 0.00319329
2 *419:io_oeb_low[0] 0.00528116
3 *51:225 0.0069467
4 *51:207 0.00942393
5 *51:189 0.00918009
6 *51:171 0.00847258
7 *51:153 0.00938129
8 *51:139 0.0091408
9 *51:125 0.00891591
10 *51:109 0.00821141
11 *51:89 0.00838211
12 *51:81 0.00712729
13 *51:71 0.00788955
14 *51:49 0.0098185
15 *51:31 0.0122521
16 *51:29 0.00755996
17 *51:27 0.0111618
18 *51:25 0.0113931
19 *51:19 0.00855855
20 *51:17 0.00856307
21 *51:13 0.00551691
22 io_oeb[20] *89:17 0.0125419
23 *51:13 *66:9 0
24 *51:13 *69:9 0
25 *51:19 *52:8 0
26 *51:19 *52:10 0.0240895
27 *51:31 *53:16 0
28 *51:31 *89:13 0.0779537
29 *51:31 *90:19 0.217674
30 *17:13 *51:27 0.0127819
31 *18:13 *51:27 0.0117629
32 *21:13 *51:27 0.0741276
33 *25:13 *51:27 0.00343648
*RES
1 *419:io_oeb_low[0] *51:13 46.582 
2 *51:13 *51:17 5.944 
3 *51:17 *51:19 91.58 
4 *51:19 *51:25 10.596 
5 *51:25 *51:27 193.876 
6 *51:27 *51:29 4.5 
7 *51:29 *51:31 528.276 
8 *51:31 *51:49 49.236 
9 *51:49 *51:71 48.308 
10 *51:71 *51:81 31.892 
11 *51:81 *51:89 38.032 
12 *51:89 *51:109 45.512 
13 *51:109 *51:125 46.728 
14 *51:125 *51:139 45.724 
15 *51:139 *51:153 43.444 
16 *51:153 *51:171 45.572 
17 *51:171 *51:189 46.82 
18 *51:189 *51:207 48.444 
19 *51:207 *51:225 48.036 
20 *51:225 io_oeb[20] 41.702 
*END

*D_NET *52 0.398219
*CONN
*P io_oeb[21] O
*I *419:io_oeb_low[1] O *D J1Asic
*CAP
1 io_oeb[21] 0.00334651
2 *419:io_oeb_low[1] 0.00233029
3 *52:14 0.113134
4 *52:12 0.109787
5 *52:10 0.0191649
6 *52:8 0.0214952
7 io_oeb[21] *53:20 0.002421
8 io_oeb[21] *89:17 0.00959823
9 *52:10 *103:6 0.000569878
10 *52:10 *106:12 0.0787591
11 *52:10 *107:12 0.000159066
12 *15:23 *52:10 0.0133643
13 *17:13 *52:10 0
14 *51:19 *52:8 0
15 *51:19 *52:10 0.0240895
*RES
1 *419:io_oeb_low[1] *52:8 21.448 
2 *52:8 *52:10 262.352 
3 *52:10 *52:12 4.5 
4 *52:12 *52:14 795.644 
5 *52:14 io_oeb[21] 46.506 
*END

*D_NET *53 0.427278
*CONN
*P io_oeb[22] O
*I *419:io_oeb_high[0] O *D J1Asic
*CAP
1 io_oeb[22] 0.00102104
2 *419:io_oeb_high[0] 4.10553e-05
3 *53:20 0.00955733
4 *53:18 0.00853629
5 *53:16 0.100588
6 *53:14 0.100588
7 *53:12 0.0192539
8 *53:10 0.019295
9 *53:12 *60:15 0
10 *53:12 *314:17 0.00125764
11 *53:16 *89:13 0
12 *53:16 *90:19 0.0208217
13 io_oeb[21] *53:20 0.002421
14 *419:pmodA_read[5] *53:12 0.000316611
15 *15:11 *53:20 0.000197062
16 *22:13 *53:12 0.00124431
17 *26:13 *53:12 0.108063
18 *28:13 *53:12 0.00874212
19 *29:17 *53:12 0.0103009
20 *30:13 *53:12 0.00775242
21 *31:13 *53:12 0.00728147
22 *51:31 *53:16 0
*RES
1 *419:io_oeb_high[0] *53:10 13.7253 
2 *53:10 *53:12 107.977 
3 *53:12 *53:14 4.5 
4 *53:14 *53:16 797.465 
5 *53:16 *53:18 4.5 
6 *53:18 *53:20 64.828 
7 *53:20 io_oeb[22] 11.53 
*END

*D_NET *54 0.395623
*CONN
*P io_oeb[23] O
*I *419:io_oeb_high[1] O *D J1Asic
*CAP
1 io_oeb[23] 0.0164727
2 *419:io_oeb_high[1] 0.000578382
3 *54:11 0.0164727
4 *54:9 0.031959
5 *54:7 0.0325373
6 *54:9 *55:9 0.183254
7 *54:9 *57:9 0.00152272
8 *16:13 io_oeb[23] 0.00862933
9 *17:9 io_oeb[23] 0.104197
*RES
1 *419:io_oeb_high[1] *54:7 8.186 
2 *54:7 *54:9 449.236 
3 *54:9 *54:11 4.5 
4 *54:11 io_oeb[23] 268.774 
*END

*D_NET *55 0.44746
*CONN
*P io_oeb[24] O
*I *419:io_oeb_high[2] O *D J1Asic
*CAP
1 io_oeb[24] 0.000758559
2 *419:io_oeb_high[2] 0.000556524
3 *55:13 0.026219
4 *55:11 0.0254605
5 *55:9 0.00178908
6 *55:7 0.0023456
7 *55:9 *57:9 0.186687
8 *55:9 *67:9 0
9 *55:13 *57:13 0.0203889
10 *54:9 *55:9 0.183254
*RES
1 *419:io_oeb_high[2] *55:7 8.034 
2 *55:7 *55:9 450.908 
3 *55:9 *55:11 4.5 
4 *55:11 *55:13 219.108 
5 *55:13 io_oeb[24] 10.01 
*END

*D_NET *56 0.61604
*CONN
*P io_oeb[25] O
*I *419:io_oeb_high[3] O *D J1Asic
*CAP
1 io_oeb[25] 0.00144589
2 *419:io_oeb_high[3] 0.00046566
3 *56:19 0.0986019
4 *56:17 0.097156
5 *56:15 0.0118241
6 *56:13 0.0122898
7 *56:15 *60:15 0.171181
8 *56:15 *62:9 0.00659614
9 *56:15 *63:9 0.0135719
10 *56:15 *90:15 0.0782312
11 *56:15 *100:9 0.00884376
12 *56:15 *101:9 0.0180892
13 *56:15 *102:9 0.00710264
14 *56:15 *313:11 0.00508682
15 *56:19 *101:13 0.0130639
16 *22:9 *56:19 0.0484115
17 *25:9 *56:19 0.014252
18 *26:13 *56:15 0
19 *27:13 *56:15 0.00665708
20 *30:9 *56:19 0.00316907
*RES
1 *419:io_oeb_high[3] *56:13 15.9619 
2 *56:13 *56:15 143.105 
3 *56:15 *56:17 4.5 
4 *56:17 *56:19 699.344 
5 *56:19 io_oeb[25] 14.266 
*END

*D_NET *57 0.481796
*CONN
*P io_oeb[26] O
*I *419:io_oeb_high[4] O *D J1Asic
*CAP
1 io_oeb[26] 0.000813762
2 *419:io_oeb_high[4] 0.000521833
3 *57:13 0.00658087
4 *57:11 0.00576711
5 *57:9 0.0085924
6 *57:7 0.00911423
7 *57:9 *58:9 0.232647
8 *57:9 *67:9 0
9 *57:13 *58:13 0.00916063
10 *54:9 *57:9 0.00152272
11 *55:9 *57:9 0.186687
12 *55:13 *57:13 0.0203889
*RES
1 *419:io_oeb_high[4] *57:7 7.882 
2 *57:7 *57:9 561.868 
3 *57:9 *57:11 4.5 
4 *57:11 *57:13 104.348 
5 *57:13 io_oeb[26] 10.314 
*END

*D_NET *58 0.366809
*CONN
*P io_oeb[27] O
*I *419:io_oeb_high[5] O *D J1Asic
*CAP
1 io_oeb[27] 0.000868965
2 *419:io_oeb_high[5] 0.000487142
3 *58:13 0.00483075
4 *58:11 0.00396178
5 *58:9 0.0571828
6 *58:7 0.05767
7 *58:9 *67:9 0
8 *21:9 *58:13 0
9 *57:9 *58:9 0.232647
10 *57:13 *58:13 0.00916063
*RES
1 *419:io_oeb_high[5] *58:7 7.73 
2 *58:7 *58:9 682.86 
3 *58:9 *58:11 4.5 
4 *58:11 *58:13 47.044 
5 *58:13 io_oeb[27] 10.618 
*END

*D_NET *59 0.317911
*CONN
*P io_oeb[28] O
*I *419:io_oeb_high[6] O *D J1Asic
*CAP
1 io_oeb[28] 0.00125596
2 *419:io_oeb_high[6] 0.000531355
3 *59:13 0.089961
4 *59:11 0.0887051
5 *59:9 0.028504
6 *59:7 0.0290353
7 io_oeb[28] *67:13 0.000301756
8 *59:13 *65:25 0.0796165
*RES
1 *419:io_oeb_high[6] *59:7 8.338 
2 *59:7 *59:9 206.837 
3 *59:9 *59:11 4.5 
4 *59:11 *59:13 324.214 
5 *59:13 io_oeb[28] 17.4333 
*END

*D_NET *60 0.547844
*CONN
*P io_oeb[29] O
*I *419:io_oeb_high[7] O *D J1Asic
*CAP
1 io_oeb[29] 0.000779199
2 *419:io_oeb_high[7] 0.000345097
3 *60:27 0.0166782
4 *60:25 0.017511
5 *60:19 0.0124731
6 *60:17 0.0108611
7 *60:15 0.0318876
8 *60:13 0.0322327
9 *60:15 *63:9 0.000780726
10 *60:15 *100:9 0.00145073
11 *60:15 *101:9 0.000362028
12 *60:15 *102:9 0.00106663
13 *60:19 *62:13 0.00676992
14 *60:19 *64:10 0.00517707
15 *60:19 *100:17 0.000765271
16 *60:27 *65:29 0.00814525
17 *60:27 *67:13 0.00749671
18 *60:27 *100:21 0.115307
19 *60:27 *103:10 0.0455403
20 *26:9 *60:19 0.0598615
21 *26:13 *60:15 0
22 *27:13 *60:15 0.00117249
23 *53:12 *60:15 0
24 *56:15 *60:15 0.171181
*RES
1 *419:io_oeb_high[7] *60:13 15.7176 
2 *60:13 *60:15 180.077 
3 *60:15 *60:17 4.5 
4 *60:17 *60:19 146.124 
5 *60:19 *60:25 18.044 
6 *60:25 *60:27 323.228 
7 *60:27 io_oeb[29] 10.01 
*END

*D_NET *62 0.594225
*CONN
*P io_oeb[30] O
*I *419:pmodA_oeb[0] O *D J1Asic
*CAP
1 io_oeb[30] 0.00226459
2 *419:pmodA_oeb[0] 0.000515366
3 *62:13 0.00973906
4 *62:11 0.00747447
5 *62:9 0.000894602
6 *62:7 0.00140997
7 *62:9 *69:9 0.0360835
8 *62:9 *90:15 0.00615697
9 *62:9 *102:9 0.148071
10 *62:9 *313:11 0.0759482
11 *62:13 *64:10 0.119254
12 *62:13 *100:17 0.00043359
13 *419:pmodA_read[4] *62:7 6.78067e-06
14 *16:13 *62:13 0.00379053
15 *17:9 *62:13 0.164568
16 *26:9 *62:13 0.00424832
17 *56:15 *62:9 0.00659614
18 *60:19 *62:13 0.00676992
*RES
1 *419:pmodA_oeb[0] *62:7 7.426 
2 *62:7 *62:9 356.212 
3 *62:9 *62:11 4.5 