*SPEF "ieee 1481-1999"
*DESIGN "user_project_wrapper"
*DATE "11:11:11 Fri 11 11, 1111"
*VENDOR "OpenRCX"
*PROGRAM "Parallel Extraction"
*VERSION "1.0"
*DESIGN_FLOW "NAME_SCOPE LOCAL" "PIN_CAP NONE"
*DIVIDER /
*DELIMITER :
*BUS_DELIMITER []
*T_UNIT 1 NS
*C_UNIT 1 PF
*R_UNIT 1 OHM
*L_UNIT 1 HENRY

*NAME_MAP
*1 io_in[0]
*2 io_in[10]
*3 io_in[11]
*4 io_in[12]
*5 io_in[13]
*6 io_in[14]
*7 io_in[15]
*8 io_in[16]
*9 io_in[17]
*10 io_in[18]
*11 io_in[19]
*12 io_in[1]
*13 io_in[20]
*14 io_in[21]
*15 io_in[22]
*16 io_in[23]
*17 io_in[24]
*18 io_in[25]
*19 io_in[26]
*20 io_in[27]
*21 io_in[28]
*22 io_in[29]
*23 io_in[2]
*24 io_in[30]
*25 io_in[31]
*26 io_in[32]
*27 io_in[33]
*28 io_in[34]
*29 io_in[35]
*30 io_in[36]
*31 io_in[37]
*32 io_in[3]
*33 io_in[4]
*34 io_in[5]
*35 io_in[6]
*36 io_in[7]
*37 io_in[8]
*38 io_in[9]
*39 io_oeb[0]
*40 io_oeb[10]
*41 io_oeb[11]
*42 io_oeb[12]
*43 io_oeb[13]
*44 io_oeb[14]
*45 io_oeb[15]
*46 io_oeb[16]
*47 io_oeb[17]
*48 io_oeb[18]
*49 io_oeb[19]
*50 io_oeb[1]
*51 io_oeb[20]
*52 io_oeb[21]
*53 io_oeb[22]
*54 io_oeb[23]
*55 io_oeb[24]
*56 io_oeb[25]
*57 io_oeb[26]
*58 io_oeb[27]
*59 io_oeb[28]
*60 io_oeb[29]
*61 io_oeb[2]
*62 io_oeb[30]
*63 io_oeb[31]
*64 io_oeb[32]
*65 io_oeb[33]
*66 io_oeb[34]
*67 io_oeb[35]
*68 io_oeb[36]
*69 io_oeb[37]
*70 io_oeb[3]
*71 io_oeb[4]
*72 io_oeb[5]
*73 io_oeb[6]
*74 io_oeb[7]
*75 io_oeb[8]
*76 io_oeb[9]
*77 io_out[0]
*78 io_out[10]
*79 io_out[11]
*80 io_out[12]
*81 io_out[13]
*82 io_out[14]
*83 io_out[15]
*84 io_out[16]
*85 io_out[17]
*86 io_out[18]
*87 io_out[19]
*88 io_out[1]
*89 io_out[20]
*90 io_out[21]
*91 io_out[22]
*92 io_out[23]
*93 io_out[24]
*94 io_out[25]
*95 io_out[26]
*96 io_out[27]
*97 io_out[28]
*98 io_out[29]
*99 io_out[2]
*100 io_out[30]
*101 io_out[31]
*102 io_out[32]
*103 io_out[33]
*104 io_out[34]
*105 io_out[35]
*106 io_out[36]
*107 io_out[37]
*108 io_out[3]
*109 io_out[4]
*110 io_out[5]
*111 io_out[6]
*112 io_out[7]
*113 io_out[8]
*114 io_out[9]
*115 la_data_in[0]
*116 la_data_in[10]
*117 la_data_in[11]
*118 la_data_in[12]
*119 la_data_in[13]
*120 la_data_in[14]
*121 la_data_in[15]
*122 la_data_in[16]
*123 la_data_in[17]
*124 la_data_in[18]
*125 la_data_in[19]
*126 la_data_in[1]
*127 la_data_in[20]
*128 la_data_in[21]
*129 la_data_in[22]
*130 la_data_in[23]
*131 la_data_in[24]
*132 la_data_in[25]
*133 la_data_in[26]
*134 la_data_in[27]
*135 la_data_in[28]
*136 la_data_in[29]
*137 la_data_in[2]
*138 la_data_in[30]
*139 la_data_in[31]
*140 la_data_in[32]
*141 la_data_in[33]
*142 la_data_in[34]
*143 la_data_in[35]
*144 la_data_in[36]
*145 la_data_in[37]
*146 la_data_in[38]
*147 la_data_in[39]
*148 la_data_in[3]
*149 la_data_in[40]
*150 la_data_in[41]
*151 la_data_in[42]
*152 la_data_in[43]
*153 la_data_in[44]
*154 la_data_in[45]
*155 la_data_in[46]
*156 la_data_in[47]
*157 la_data_in[48]
*158 la_data_in[49]
*159 la_data_in[4]
*160 la_data_in[50]
*161 la_data_in[51]
*162 la_data_in[52]
*163 la_data_in[53]
*164 la_data_in[54]
*165 la_data_in[55]
*166 la_data_in[56]
*167 la_data_in[57]
*168 la_data_in[58]
*169 la_data_in[59]
*170 la_data_in[5]
*171 la_data_in[60]
*172 la_data_in[61]
*173 la_data_in[62]
*174 la_data_in[63]
*175 la_data_in[6]
*176 la_data_in[7]
*177 la_data_in[8]
*178 la_data_in[9]
*179 la_data_out[0]
*180 la_data_out[10]
*181 la_data_out[11]
*182 la_data_out[12]
*183 la_data_out[13]
*184 la_data_out[14]
*185 la_data_out[15]
*186 la_data_out[16]
*187 la_data_out[17]
*188 la_data_out[18]
*189 la_data_out[19]
*190 la_data_out[1]
*191 la_data_out[20]
*192 la_data_out[21]
*193 la_data_out[22]
*194 la_data_out[23]
*195 la_data_out[24]
*196 la_data_out[25]
*197 la_data_out[26]
*198 la_data_out[27]
*199 la_data_out[28]
*200 la_data_out[29]
*201 la_data_out[2]
*202 la_data_out[30]
*203 la_data_out[31]
*204 la_data_out[32]
*205 la_data_out[33]
*206 la_data_out[34]
*207 la_data_out[35]
*208 la_data_out[36]
*209 la_data_out[37]
*210 la_data_out[38]
*211 la_data_out[39]
*212 la_data_out[3]
*213 la_data_out[40]
*214 la_data_out[41]
*215 la_data_out[42]
*216 la_data_out[43]
*217 la_data_out[44]
*218 la_data_out[45]
*219 la_data_out[46]
*220 la_data_out[47]
*221 la_data_out[48]
*222 la_data_out[49]
*223 la_data_out[4]
*224 la_data_out[50]
*225 la_data_out[51]
*226 la_data_out[52]
*227 la_data_out[53]
*228 la_data_out[54]
*229 la_data_out[55]
*230 la_data_out[56]
*231 la_data_out[57]
*232 la_data_out[58]
*233 la_data_out[59]
*234 la_data_out[5]
*235 la_data_out[60]
*236 la_data_out[61]
*237 la_data_out[62]
*238 la_data_out[63]
*239 la_data_out[6]
*240 la_data_out[7]
*241 la_data_out[8]
*242 la_data_out[9]
*243 la_oenb[0]
*244 la_oenb[10]
*245 la_oenb[11]
*246 la_oenb[12]
*247 la_oenb[13]
*248 la_oenb[14]
*249 la_oenb[15]
*250 la_oenb[16]
*251 la_oenb[17]
*252 la_oenb[18]
*253 la_oenb[19]
*254 la_oenb[1]
*255 la_oenb[20]
*256 la_oenb[21]
*257 la_oenb[22]
*258 la_oenb[23]
*259 la_oenb[24]
*260 la_oenb[25]
*261 la_oenb[26]
*262 la_oenb[27]
*263 la_oenb[28]
*264 la_oenb[29]
*265 la_oenb[2]
*266 la_oenb[30]
*267 la_oenb[31]
*268 la_oenb[32]
*269 la_oenb[33]
*270 la_oenb[34]
*271 la_oenb[35]
*272 la_oenb[36]
*273 la_oenb[37]
*274 la_oenb[38]
*275 la_oenb[39]
*276 la_oenb[3]
*277 la_oenb[40]
*278 la_oenb[41]
*279 la_oenb[42]
*280 la_oenb[43]
*281 la_oenb[44]
*282 la_oenb[45]
*283 la_oenb[46]
*284 la_oenb[47]
*285 la_oenb[48]
*286 la_oenb[49]
*287 la_oenb[4]
*288 la_oenb[50]
*289 la_oenb[51]
*290 la_oenb[52]
*291 la_oenb[53]
*292 la_oenb[54]
*293 la_oenb[55]
*294 la_oenb[56]
*295 la_oenb[57]
*296 la_oenb[58]
*297 la_oenb[59]
*298 la_oenb[5]
*299 la_oenb[60]
*300 la_oenb[61]
*301 la_oenb[62]
*302 la_oenb[63]
*303 la_oenb[6]
*304 la_oenb[7]
*305 la_oenb[8]
*306 la_oenb[9]
*307 user_clock2
*308 user_irq[0]
*309 user_irq[1]
*310 user_irq[2]
*313 wb_clk_i
*314 wb_rst_i
*315 wbs_ack_o
*316 wbs_adr_i[0]
*317 wbs_adr_i[10]
*318 wbs_adr_i[11]
*319 wbs_adr_i[12]
*320 wbs_adr_i[13]
*321 wbs_adr_i[14]
*322 wbs_adr_i[15]
*323 wbs_adr_i[16]
*324 wbs_adr_i[17]
*325 wbs_adr_i[18]
*326 wbs_adr_i[19]
*327 wbs_adr_i[1]
*328 wbs_adr_i[20]
*329 wbs_adr_i[21]
*330 wbs_adr_i[22]
*331 wbs_adr_i[23]
*332 wbs_adr_i[24]
*333 wbs_adr_i[25]
*334 wbs_adr_i[26]
*335 wbs_adr_i[27]
*336 wbs_adr_i[28]
*337 wbs_adr_i[29]
*338 wbs_adr_i[2]
*339 wbs_adr_i[30]
*340 wbs_adr_i[31]
*341 wbs_adr_i[3]
*342 wbs_adr_i[4]
*343 wbs_adr_i[5]
*344 wbs_adr_i[6]
*345 wbs_adr_i[7]
*346 wbs_adr_i[8]
*347 wbs_adr_i[9]
*348 wbs_cyc_i
*349 wbs_dat_i[0]
*350 wbs_dat_i[10]
*351 wbs_dat_i[11]
*352 wbs_dat_i[12]
*353 wbs_dat_i[13]
*354 wbs_dat_i[14]
*355 wbs_dat_i[15]
*356 wbs_dat_i[16]
*357 wbs_dat_i[17]
*358 wbs_dat_i[18]
*359 wbs_dat_i[19]
*360 wbs_dat_i[1]
*361 wbs_dat_i[20]
*362 wbs_dat_i[21]
*363 wbs_dat_i[22]
*364 wbs_dat_i[23]
*365 wbs_dat_i[24]
*366 wbs_dat_i[25]
*367 wbs_dat_i[26]
*368 wbs_dat_i[27]
*369 wbs_dat_i[28]
*370 wbs_dat_i[29]
*371 wbs_dat_i[2]
*372 wbs_dat_i[30]
*373 wbs_dat_i[31]
*374 wbs_dat_i[3]
*375 wbs_dat_i[4]
*376 wbs_dat_i[5]
*377 wbs_dat_i[6]
*378 wbs_dat_i[7]
*379 wbs_dat_i[8]
*380 wbs_dat_i[9]
*381 wbs_dat_o[0]
*382 wbs_dat_o[10]
*383 wbs_dat_o[11]
*384 wbs_dat_o[12]
*385 wbs_dat_o[13]
*386 wbs_dat_o[14]
*387 wbs_dat_o[15]
*388 wbs_dat_o[16]
*389 wbs_dat_o[17]
*390 wbs_dat_o[18]
*391 wbs_dat_o[19]
*392 wbs_dat_o[1]
*393 wbs_dat_o[20]
*394 wbs_dat_o[21]
*395 wbs_dat_o[22]
*396 wbs_dat_o[23]
*397 wbs_dat_o[24]
*398 wbs_dat_o[25]
*399 wbs_dat_o[26]
*400 wbs_dat_o[27]
*401 wbs_dat_o[28]
*402 wbs_dat_o[29]
*403 wbs_dat_o[2]
*404 wbs_dat_o[30]
*405 wbs_dat_o[31]
*406 wbs_dat_o[3]
*407 wbs_dat_o[4]
*408 wbs_dat_o[5]
*409 wbs_dat_o[6]
*410 wbs_dat_o[7]
*411 wbs_dat_o[8]
*412 wbs_dat_o[9]
*413 wbs_sel_i[0]
*414 wbs_sel_i[1]
*415 wbs_sel_i[2]
*416 wbs_sel_i[3]
*417 wbs_stb_i
*418 wbs_we_i
*419 j1a

*PORTS
io_in[0] I
io_in[10] I
io_in[11] I
io_in[12] I
io_in[13] I
io_in[14] I
io_in[15] I
io_in[16] I
io_in[17] I
io_in[18] I
io_in[19] I
io_in[1] I
io_in[20] I
io_in[21] I
io_in[22] I
io_in[23] I
io_in[24] I
io_in[25] I
io_in[26] I
io_in[27] I
io_in[28] I
io_in[29] I
io_in[2] I
io_in[30] I
io_in[31] I
io_in[32] I
io_in[33] I
io_in[34] I
io_in[35] I
io_in[36] I
io_in[37] I
io_in[3] I
io_in[4] I
io_in[5] I
io_in[6] I
io_in[7] I
io_in[8] I
io_in[9] I
io_oeb[0] O
io_oeb[10] O
io_oeb[11] O
io_oeb[12] O
io_oeb[13] O
io_oeb[14] O
io_oeb[15] O
io_oeb[16] O
io_oeb[17] O
io_oeb[18] O
io_oeb[19] O
io_oeb[1] O
io_oeb[20] O
io_oeb[21] O
io_oeb[22] O
io_oeb[23] O
io_oeb[24] O
io_oeb[25] O
io_oeb[26] O
io_oeb[27] O
io_oeb[28] O
io_oeb[29] O
io_oeb[2] O
io_oeb[30] O
io_oeb[31] O
io_oeb[32] O
io_oeb[33] O
io_oeb[34] O
io_oeb[35] O
io_oeb[36] O
io_oeb[37] O
io_oeb[3] O
io_oeb[4] O
io_oeb[5] O
io_oeb[6] O
io_oeb[7] O
io_oeb[8] O
io_oeb[9] O
io_out[0] O
io_out[10] O
io_out[11] O
io_out[12] O
io_out[13] O
io_out[14] O
io_out[15] O
io_out[16] O
io_out[17] O
io_out[18] O
io_out[19] O
io_out[1] O
io_out[20] O
io_out[21] O
io_out[22] O
io_out[23] O
io_out[24] O
io_out[25] O
io_out[26] O
io_out[27] O
io_out[28] O
io_out[29] O
io_out[2] O
io_out[30] O
io_out[31] O
io_out[32] O
io_out[33] O
io_out[34] O
io_out[35] O
io_out[36] O
io_out[37] O
io_out[3] O
io_out[4] O
io_out[5] O
io_out[6] O
io_out[7] O
io_out[8] O
io_out[9] O
la_data_in[0] I
la_data_in[10] I
la_data_in[11] I
la_data_in[12] I
la_data_in[13] I
la_data_in[14] I
la_data_in[15] I
la_data_in[16] I
la_data_in[17] I
la_data_in[18] I
la_data_in[19] I
la_data_in[1] I
la_data_in[20] I
la_data_in[21] I
la_data_in[22] I
la_data_in[23] I
la_data_in[24] I
la_data_in[25] I
la_data_in[26] I
la_data_in[27] I
la_data_in[28] I
la_data_in[29] I
la_data_in[2] I
la_data_in[30] I
la_data_in[31] I
la_data_in[32] I
la_data_in[33] I
la_data_in[34] I
la_data_in[35] I
la_data_in[36] I
la_data_in[37] I
la_data_in[38] I
la_data_in[39] I
la_data_in[3] I
la_data_in[40] I
la_data_in[41] I
la_data_in[42] I
la_data_in[43] I
la_data_in[44] I
la_data_in[45] I
la_data_in[46] I
la_data_in[47] I
la_data_in[48] I
la_data_in[49] I
la_data_in[4] I
la_data_in[50] I
la_data_in[51] I
la_data_in[52] I
la_data_in[53] I
la_data_in[54] I
la_data_in[55] I
la_data_in[56] I
la_data_in[57] I
la_data_in[58] I
la_data_in[59] I
la_data_in[5] I
la_data_in[60] I
la_data_in[61] I
la_data_in[62] I
la_data_in[63] I
la_data_in[6] I
la_data_in[7] I
la_data_in[8] I
la_data_in[9] I
la_data_out[0] O
la_data_out[10] O
la_data_out[11] O
la_data_out[12] O
la_data_out[13] O
la_data_out[14] O
la_data_out[15] O
la_data_out[16] O
la_data_out[17] O
la_data_out[18] O
la_data_out[19] O
la_data_out[1] O
la_data_out[20] O
la_data_out[21] O
la_data_out[22] O
la_data_out[23] O
la_data_out[24] O
la_data_out[25] O
la_data_out[26] O
la_data_out[27] O
la_data_out[28] O
la_data_out[29] O
la_data_out[2] O
la_data_out[30] O
la_data_out[31] O
la_data_out[32] O
la_data_out[33] O
la_data_out[34] O
la_data_out[35] O
la_data_out[36] O
la_data_out[37] O
la_data_out[38] O
la_data_out[39] O
la_data_out[3] O
la_data_out[40] O
la_data_out[41] O
la_data_out[42] O
la_data_out[43] O
la_data_out[44] O
la_data_out[45] O
la_data_out[46] O
la_data_out[47] O
la_data_out[48] O
la_data_out[49] O
la_data_out[4] O
la_data_out[50] O
la_data_out[51] O
la_data_out[52] O
la_data_out[53] O
la_data_out[54] O
la_data_out[55] O
la_data_out[56] O
la_data_out[57] O
la_data_out[58] O
la_data_out[59] O
la_data_out[5] O
la_data_out[60] O
la_data_out[61] O
la_data_out[62] O
la_data_out[63] O
la_data_out[6] O
la_data_out[7] O
la_data_out[8] O
la_data_out[9] O
la_oenb[0] I
la_oenb[10] I
la_oenb[11] I
la_oenb[12] I
la_oenb[13] I
la_oenb[14] I
la_oenb[15] I
la_oenb[16] I
la_oenb[17] I
la_oenb[18] I
la_oenb[19] I
la_oenb[1] I
la_oenb[20] I
la_oenb[21] I
la_oenb[22] I
la_oenb[23] I
la_oenb[24] I
la_oenb[25] I
la_oenb[26] I
la_oenb[27] I
la_oenb[28] I
la_oenb[29] I
la_oenb[2] I
la_oenb[30] I
la_oenb[31] I
la_oenb[32] I
la_oenb[33] I
la_oenb[34] I
la_oenb[35] I
la_oenb[36] I
la_oenb[37] I
la_oenb[38] I
la_oenb[39] I
la_oenb[3] I
la_oenb[40] I
la_oenb[41] I
la_oenb[42] I
la_oenb[43] I
la_oenb[44] I
la_oenb[45] I
la_oenb[46] I
la_oenb[47] I
la_oenb[48] I
la_oenb[49] I
la_oenb[4] I
la_oenb[50] I
la_oenb[51] I
la_oenb[52] I
la_oenb[53] I
la_oenb[54] I
la_oenb[55] I
la_oenb[56] I
la_oenb[57] I
la_oenb[58] I
la_oenb[59] I
la_oenb[5] I
la_oenb[60] I
la_oenb[61] I
la_oenb[62] I
la_oenb[63] I
la_oenb[6] I
la_oenb[7] I
la_oenb[8] I
la_oenb[9] I
user_clock2 I
user_irq[0] O
user_irq[1] O
user_irq[2] O
wb_clk_i I
wb_rst_i I
wbs_ack_o O
wbs_adr_i[0] I
wbs_adr_i[10] I
wbs_adr_i[11] I
wbs_adr_i[12] I
wbs_adr_i[13] I
wbs_adr_i[14] I
wbs_adr_i[15] I
wbs_adr_i[16] I
wbs_adr_i[17] I
wbs_adr_i[18] I
wbs_adr_i[19] I
wbs_adr_i[1] I
wbs_adr_i[20] I
wbs_adr_i[21] I
wbs_adr_i[22] I
wbs_adr_i[23] I
wbs_adr_i[24] I
wbs_adr_i[25] I
wbs_adr_i[26] I
wbs_adr_i[27] I
wbs_adr_i[28] I
wbs_adr_i[29] I
wbs_adr_i[2] I
wbs_adr_i[30] I
wbs_adr_i[31] I
wbs_adr_i[3] I
wbs_adr_i[4] I
wbs_adr_i[5] I
wbs_adr_i[6] I
wbs_adr_i[7] I
wbs_adr_i[8] I
wbs_adr_i[9] I
wbs_cyc_i I
wbs_dat_i[0] I
wbs_dat_i[10] I
wbs_dat_i[11] I
wbs_dat_i[12] I
wbs_dat_i[13] I
wbs_dat_i[14] I
wbs_dat_i[15] I
wbs_dat_i[16] I
wbs_dat_i[17] I
wbs_dat_i[18] I
wbs_dat_i[19] I
wbs_dat_i[1] I
wbs_dat_i[20] I
wbs_dat_i[21] I
wbs_dat_i[22] I
wbs_dat_i[23] I
wbs_dat_i[24] I
wbs_dat_i[25] I
wbs_dat_i[26] I
wbs_dat_i[27] I
wbs_dat_i[28] I
wbs_dat_i[29] I
wbs_dat_i[2] I
wbs_dat_i[30] I
wbs_dat_i[31] I
wbs_dat_i[3] I
wbs_dat_i[4] I
wbs_dat_i[5] I
wbs_dat_i[6] I
wbs_dat_i[7] I
wbs_dat_i[8] I
wbs_dat_i[9] I
wbs_dat_o[0] O
wbs_dat_o[10] O
wbs_dat_o[11] O
wbs_dat_o[12] O
wbs_dat_o[13] O
wbs_dat_o[14] O
wbs_dat_o[15] O
wbs_dat_o[16] O
wbs_dat_o[17] O
wbs_dat_o[18] O
wbs_dat_o[19] O
wbs_dat_o[1] O
wbs_dat_o[20] O
wbs_dat_o[21] O
wbs_dat_o[22] O
wbs_dat_o[23] O
wbs_dat_o[24] O
wbs_dat_o[25] O
wbs_dat_o[26] O
wbs_dat_o[27] O
wbs_dat_o[28] O
wbs_dat_o[29] O
wbs_dat_o[2] O
wbs_dat_o[30] O
wbs_dat_o[31] O
wbs_dat_o[3] O
wbs_dat_o[4] O
wbs_dat_o[5] O
wbs_dat_o[6] O
wbs_dat_o[7] O
wbs_dat_o[8] O
wbs_dat_o[9] O
wbs_sel_i[0] I
wbs_sel_i[1] I
wbs_sel_i[2] I
wbs_sel_i[3] I
wbs_stb_i I
wbs_we_i I

*D_NET *15 0.658442
*CONN
*P io_in[22] I
*I *419:tck I *D J1Asic
*CAP
1 io_in[22] 0.00101552
2 *419:tck 0.000727232
3 *15:25 0.000861706
4 *15:23 0.000134474
5 *15:21 0.00235795
6 *15:19 0.00542854
7 *15:13 0.0469379
8 *15:11 0.0448829
9 *15:19 *51:21 0.000479601
10 *15:21 *51:13 0.237526
11 *15:21 *90:10 0.237035
12 *15:25 *25:21 0.0100784
13 *15:25 *53:9 0.000154129
14 *15:25 *54:15 0.00307498
15 *15:25 *63:9 0.0390852
16 *15:25 *313:17 0.0286624
*RES
1 io_in[22] *15:11 16.695 
2 *15:11 *15:13 357.798 
3 *15:13 *15:19 21.8127 
4 *15:19 *15:21 591.522 
5 *15:21 *15:23 4.5 
6 *15:23 *15:25 96.93 
7 *15:25 *419:tck 8.325 
*END

*D_NET *16 0.345028
*CONN
*P io_in[23] I
*I *419:tms I *D J1Asic
*CAP
1 io_in[23] 0.00107539
2 *419:tms 0.000331818
3 *16:17 0.000888406
4 *16:15 0.000556587
5 *16:13 0.115287
6 *16:11 0.115287
7 *16:9 0.0071122
8 *16:7 0.00818759
9 *16:9 io_oeb[22] 0.0124906
10 *16:17 *105:14 0.0558785
11 *16:17 *107:12 0.0279327
*RES
1 io_in[23] *16:7 12.825 
2 *16:7 *16:9 71.73 
3 *16:9 *16:11 4.5 
4 *16:11 *16:13 941.85 
5 *16:13 *16:15 4.5 
6 *16:15 *16:17 147.15 
7 *16:17 *419:tms 15.03 
*END

*D_NET *17 0.587388
*CONN
*P io_in[24] I
*I *419:tdi I *D J1Asic
*CAP
1 io_in[24] 0.0029311
2 *419:tdi 0.000119175
3 *17:13 0.025615
4 *17:11 0.0254959
5 *17:9 0.0947461
6 *17:7 0.0976772
7 *17:9 *24:9 0.0471554
8 *17:9 *54:19 0.137802
9 *17:13 *58:12 0.148495
10 *17:13 *90:6 0.00735098
*RES
1 io_in[24] *17:7 26.865 
2 *17:7 *17:9 938.388 
3 *17:9 *17:11 4.5 
4 *17:11 *17:13 127.74 
5 *17:13 *419:tdi 14.0882 
*END

*D_NET *18 0.759239
*CONN
*P io_in[25] I
*I *419:rx I *D J1Asic
*CAP
1 io_in[25] 0.00228372
2 *419:rx 5.79907e-05
3 *18:13 0.0218969
4 *18:11 0.0218389
5 *18:9 0.0660997
6 *18:7 0.0683834
7 *18:9 io_oeb[23] 0.00957231
8 *18:9 *22:9 0.0531955
9 *18:9 *58:16 0.0258159
10 *18:9 *60:19 0.223276
11 *18:13 *27:13 0.0159117
12 *18:13 *28:13 0.0190486
13 *18:13 *51:9 0.00790177
14 *18:13 *57:9 0.0144624
15 *18:13 *58:12 0.194726
16 *18:13 *60:15 0
17 *18:13 *65:9 0.0132574
18 *18:13 *89:10 0.00151031
*RES
1 io_in[25] *18:7 21.465 
2 *18:7 *18:9 870.927 
3 *18:9 *18:11 4.5 
4 *18:11 *18:13 167.602 
5 *18:13 *419:rx 13.7668 
*END

*D_NET *19 0.215663
*CONN
*P io_in[26] I
*I *419:extInt[0] I *D J1Asic
*CAP
1 io_in[26] 0.00255092
2 *419:extInt[0] 0.0926559
3 *19:7 0.0952068
4 *419:extInt[0] io_oeb[23] 0
5 *419:extInt[0] *419:extInt[1] 0.0176304
6 *419:extInt[0] *22:9 0
7 *419:extInt[0] *27:9 0
8 *419:extInt[0] *30:9 0.00761869
*RES
1 io_in[26] *19:7 23.265 
2 *19:7 *419:extInt[0] 801.585 
*END

*D_NET *20 0.275954
*CONN
*P io_in[27] I
*I *419:extInt[1] I *D J1Asic
*CAP
1 io_in[27] 0.00325765
2 *419:extInt[1] 0.0590145
3 *20:7 0.0622721
4 *419:extInt[1] *30:9 0.0464115
5 *419:extInt[1] *59:16 0.0216542
6 *419:extInt[1] *102:13 0.0657138
7 *419:extInt[0] *419:extInt[1] 0.0176304
*RES
1 io_in[27] *20:7 24.345 
2 *20:7 *419:extInt[1] 733.545 
*END

*D_NET *21 0.575416
*CONN
*P io_in[28] I
*I *419:extInt[2] I *D J1Asic
*CAP
1 io_in[28] 0.00193479
2 *419:extInt[2] 0.000195205
3 *21:13 0.0327553
4 *21:11 0.0325601
5 *21:9 0.0232315
6 *21:7 0.0251663
7 *21:9 *26:9 0.0526128
8 *21:9 *28:9 3.02306e-05
9 *21:9 *57:13 0.0442768
10 *21:9 *63:13 0.164372
11 *21:9 *106:16 0.0383143
12 *21:13 *22:13 0.121997
13 *21:13 *51:9 0.037576
14 *21:13 *57:9 0.000393529
15 *21:13 *62:9 0
16 *21:13 *104:9 0
*RES
1 io_in[28] *21:7 16.425 
2 *21:7 *21:9 667.89 
3 *21:9 *21:11 4.5 
4 *21:11 *21:13 508.05 
5 *21:13 *419:extInt[2] 5.805 
*END

*D_NET *22 0.518078
*CONN
*P io_in[29] I
*I *419:boardClkLocked I *D J1Asic
*CAP
1 io_in[29] 0.00230783
2 *419:boardClkLocked 0.000243451
3 *22:13 0.00139367
4 *22:11 0.00115022
5 *22:9 0.0433554
6 *22:7 0.0456633
7 *22:9 io_oeb[23] 0.100889
8 *22:9 *27:9 0.0578809
9 *22:9 *313:15 1.44688e-05
10 *22:13 *51:9 0.0630885
11 *22:13 *57:9 0.000951625
12 *22:13 *65:9 0.0259461
13 *419:extInt[0] *22:9 0
14 *18:9 *22:9 0.0531955
15 *21:13 *22:13 0.121997
*RES
1 io_in[29] *22:7 21.465 
2 *22:7 *22:9 599.67 
3 *22:9 *22:11 4.5 
4 *22:11 *22:13 303.21 
5 *22:13 *419:boardClkLocked 5.625 
*END

*D_NET *24 0.55007
*CONN
*P io_in[30] I
*I *419:pmodA_read[0] I *D J1Asic
*CAP
1 io_in[30] 0.00307569
2 *419:pmodA_read[0] 0
3 *24:13 0.00317694
4 *24:11 0.00317694
5 *24:9 0.0375131
6 *24:7 0.0405888
7 *24:9 *62:13 0.190416
8 *24:9 *314:7 0
9 *24:13 *419:pmodA_read[5] 0.000284587
10 *24:13 *26:13 0.000424563
11 *24:13 *51:9 0
12 *24:13 *64:6 0.0358924
13 *24:13 *66:8 0.000655941
14 *24:13 *66:10 0.0821993
15 *24:13 *68:15 0.000246422
16 *24:13 *90:6 0.100845
17 *24:13 *105:12 0.00359612
18 *24:13 *313:15 0.000500049
19 *24:13 *314:9 0.000322441
20 *17:9 *24:9 0.0471554
*RES
1 io_in[30] *24:7 26.865 
2 *24:7 *24:9 529.83 
3 *24:9 *24:11 4.5 
4 *24:11 *24:13 454.41 
5 *24:13 *419:pmodA_read[0] 4.5 
*END

*D_NET *25 0.498409
*CONN
*P io_in[31] I
*I *419:pmodA_read[1] I *D J1Asic
*CAP
1 io_in[31] 0.000751787
2 *419:pmodA_read[1] 0.000515326
3 *25:21 0.00166194
4 *25:19 0.00278865
5 *25:13 0.0121287
6 *25:11 0.0104867
7 *25:9 0.0563215
8 *25:7 0.0570732
9 *419:pmodA_read[1] *101:7 7.35063e-05
10 *25:9 io_out[37] 0.000925831
11 *25:9 *68:21 0.00235548
12 *25:9 *100:27 0.0142855
13 *25:9 *101:21 0.038761
14 *25:9 *103:21 0.00641747
15 *25:9 *105:18 0.00476929
16 *25:13 *31:13 0.000243657
17 *25:13 *59:12 0.106593
18 *25:13 *67:12 0.000189131
19 *25:13 *68:17 0.000181796
20 *25:13 *89:14 0.0352795
21 *25:13 *101:19 0.000508104
22 *25:21 *53:9 0.0859365
23 *25:21 *54:15 0.00493705
24 *25:21 *63:9 0.038925
25 *25:21 *100:15 0.00279194
26 *25:21 *101:9 0.00125415
27 *25:21 *103:9 0.00217479
28 *15:25 *25:21 0.0100784
*RES
1 io_in[31] *25:7 10.665 
2 *25:7 *25:9 457.769 
3 *25:9 *25:11 4.5 
4 *25:11 *25:13 97.4236 
5 *25:13 *25:19 17.4311 
6 *25:19 *25:21 234.63 
7 *25:21 *419:pmodA_read[1] 8.145 
*END

*D_NET *26 0.472397
*CONN
*P io_in[32] I
*I *419:pmodA_read[2] I *D J1Asic
*CAP
1 io_in[32] 0.00168203
2 *419:pmodA_read[2] 0
3 *26:13 0.00248952
4 *26:11 0.00248952
5 *26:9 0.0143231
6 *26:7 0.0160051
7 *26:9 *28:9 0.0457327
8 *26:9 *106:16 0.038308
9 *26:13 *419:pmodA_read[4] 0.00428401
10 *26:13 *28:13 0.075829
11 *26:13 *51:9 0.000177661
12 *26:13 *57:9 3.3721e-05
13 *26:13 *58:12 0.0218553
14 *26:13 *64:6 0.181775
15 *26:13 *89:10 0.0143753
16 *26:13 *106:12 0
17 *21:9 *26:9 0.0526128
18 *24:13 *26:13 0.000424563
*RES
1 io_in[32] *26:7 16.785 
2 *26:7 *26:9 394.29 
3 *26:9 *26:11 4.5 
4 *26:11 *26:13 456.93 
5 *26:13 *419:pmodA_read[2] 4.5 
*END

*D_NET *27 0.50022
*CONN
*P io_in[33] I
*I *419:pmodA_read[3] I *D J1Asic
*CAP
1 io_in[33] 0.00248089
2 *419:pmodA_read[3] 6.49513e-05
3 *27:13 0.000972964
4 *27:11 0.000908013
5 *27:9 0.0244973
6 *27:7 0.0269782
7 *419:pmodA_read[3] *103:7 7.11009e-06
8 *419:pmodA_read[3] *104:7 7.11009e-06
9 *27:9 *58:16 0.014396
10 *27:9 *313:15 4.53363e-05
11 *27:13 *419:pmodA_read[4] 0.00155367
12 *27:13 *28:13 0.175427
13 *27:13 *51:9 0.000271881
14 *27:13 *57:9 0.176233
15 *27:13 *58:12 0.00176955
16 *27:13 *65:9 0.000814105
17 *419:extInt[0] *27:9 0
18 *18:13 *27:13 0.0159117
19 *22:9 *27:9 0.0578809
*RES
1 io_in[33] *27:7 21.825 
2 *27:7 *27:9 326.79 
3 *27:9 *27:11 4.5 
4 *27:11 *27:13 444.33 
5 *27:13 *419:pmodA_read[3] 4.905 
*END

*D_NET *28 0.384165
*CONN
*P io_in[34] I
*I *419:pmodA_read[4] I *D J1Asic
*CAP
1 io_in[34] 0.00175952
2 *419:pmodA_read[4] 0.000231857
3 *28:13 0.00229671
4 *28:11 0.00206485
5 *28:9 0.0194122
6 *28:7 0.0211717
7 *419:pmodA_read[4] *51:9 0.000156616
8 *28:9 *64:10 0
9 *28:13 *57:9 0.000781963
10 *28:13 *89:10 0.014384
11 *18:13 *28:13 0.0190486
12 *21:9 *28:9 3.02306e-05
13 *26:9 *28:9 0.0457327
14 *26:13 *419:pmodA_read[4] 0.00428401
15 *26:13 *28:13 0.075829
16 *27:13 *419:pmodA_read[4] 0.00155367
17 *27:13 *28:13 0.175427
*RES
1 io_in[34] *28:7 17.145 
2 *28:7 *28:9 258.57 
3 *28:9 *28:11 4.5 
4 *28:11 *28:13 440.46 
5 *28:13 *419:pmodA_read[4] 15.57 
*END

*D_NET *29 0.38049
*CONN
*P io_in[35] I
*I *419:pmodA_read[5] I *D J1Asic
*CAP
1 io_in[35] 0.00331194
2 *419:pmodA_read[5] 0.00058358
3 *29:13 0.0269637
4 *29:11 0.0263801
5 *29:9 0.00533583
6 *29:7 0.00864777
7 *419:pmodA_read[5] *419:pmodA_read[6] 0
8 *419:pmodA_read[5] *66:10 0.00027591
9 *29:9 *54:19 0.00651258
10 *29:9 *62:13 0.0732405
11 *29:9 *103:13 0.0415969
12 *29:13 *30:13 0.17338
13 *29:13 *59:12 0.0139768
14 *29:13 *107:12 0
15 *24:13 *419:pmodA_read[5] 0.000284587
*RES
1 io_in[35] *29:7 27.225 
2 *29:7 *29:9 186.39 
3 *29:9 *29:11 4.5 
4 *29:11 *29:13 429.57 
5 *29:13 *419:pmodA_read[5] 17.46 
*END

*D_NET *30 0.439402
*CONN
*P io_in[36] I
*I *419:pmodA_read[6] I *D J1Asic
*CAP
1 io_in[36] 0.00288261
2 *419:pmodA_read[6] 0.000550733
3 *30:13 0.00138411
4 *30:11 0.000833374
5 *30:9 0.00438792
6 *30:7 0.00727053
7 *30:9 *59:16 0.00525478
8 *30:13 *59:12 0.0150399
9 *30:13 *67:12 0.000775527
10 *30:13 *68:17 0.173613
11 *30:13 *107:12 0
12 *419:extInt[0] *30:9 0.00761869
13 *419:extInt[1] *30:9 0.0464115
14 *419:pmodA_read[5] *419:pmodA_read[6] 0
15 *29:13 *30:13 0.17338
*RES
1 io_in[36] *30:7 24.165 
2 *30:7 *30:9 118.17 
3 *30:9 *30:11 4.5 
4 *30:11 *30:13 434.43 
5 *30:13 *419:pmodA_read[6] 16.83 
*END

*D_NET *31 0.28606
*CONN
*P io_in[37] I
*I *419:pmodA_read[7] I *D J1Asic
*CAP
1 io_in[37] 0.00127555
2 *419:pmodA_read[7] 0.000610265
3 *31:13 0.0272577
4 *31:11 0.0266474
5 *31:9 0.00437904
6 *31:7 0.00565459
7 *419:pmodA_read[7] *106:10 1.53246e-05
8 *31:9 *104:13 0.018323
9 *31:13 *59:12 0.0151347
10 *31:13 *67:12 0.180218
11 *31:13 *101:19 0.00630056
12 *25:13 *31:13 0.000243657
*RES
1 io_in[37] *31:7 13.545 
2 *31:7 *31:9 49.59 
3 *31:9 *31:11 4.5 
4 *31:11 *31:13 447.21 
5 *31:13 *419:pmodA_read[7] 17.37 
*END

*D_NET *51 0.705452
*CONN
*P io_oeb[20] O
*I *419:io_oeb_low[0] O *D J1Asic
*CAP
1 io_oeb[20] 0.00107539
2 *419:io_oeb_low[0] 0.000133274
3 *51:137 0.0131187
4 *51:135 0.0123317
5 *51:131 0.00374433
6 *51:123 0.00633202
7 *51:115 0.00554454
8 *51:101 0.0103896
9 *51:99 0.013016
10 *51:91 0.00597884
11 *51:85 0.00573065
12 *51:77 0.0130033
13 *51:75 0.00956124
14 *51:67 0.00614154
15 *51:55 0.00766513
16 *51:43 0.00576225
17 *51:21 0.00788421
18 *51:13 0.0423419
19 *51:11 0.0370917
20 *51:9 0.00863927
21 *51:7 0.00877255
22 *51:9 *65:9 0.119236
23 *51:13 *90:10 0.000214993
24 *51:43 *56:9 0
25 *51:55 *89:34 0.00803439
26 *51:75 *90:30 0.00111427
27 *51:77 *89:52 0
28 *51:131 io_oeb[21] 0.00541657
29 *419:pmodA_read[4] *51:9 0.000156616
30 *15:19 *51:21 0.000479601
31 *15:21 *51:13 0.237526
32 *18:13 *51:9 0.00790177
33 *21:13 *51:9 0.037576
34 *22:13 *51:9 0.0630885
35 *24:13 *51:9 0
36 *26:13 *51:9 0.000177661
37 *27:13 *51:9 0.000271881
*RES
1 *419:io_oeb_low[0] *51:7 5.445 
2 *51:7 *51:9 389.79 
3 *51:9 *51:11 4.5 
4 *51:11 *51:13 589.799 
5 *51:13 *51:21 47.9029 
6 *51:21 *51:43 47.43 
7 *51:43 *51:55 47.61 
8 *51:55 *51:67 48.69 
9 *51:67 *51:75 22.5 
10 *51:75 *51:77 61.11 
11 *51:77 *51:85 46.98 
12 *51:85 *51:91 14.49 
13 *51:91 *51:99 49.68 
14 *51:99 *51:101 59.49 
15 *51:101 *51:115 38.43 
16 *51:115 *51:123 30.78 
17 *51:123 *51:131 49.14 
18 *51:131 *51:135 6.57 
19 *51:135 *51:137 96.57 
20 *51:137 io_oeb[20] 12.825 
*END

*D_NET *52 0.261209
*CONN
*P io_oeb[21] O
*I *419:io_oeb_low[1] O *D J1Asic
*CAP
1 io_oeb[21] 0.0381709
2 *419:io_oeb_low[1] 0.000562505
3 *52:11 0.0381709
4 *52:9 0.0220833
5 *52:7 0.0226459
6 io_oeb[21] *89:58 0.00455406
7 *52:9 *55:9 0.00824363
8 *52:9 *56:9 0.121362
9 *51:131 io_oeb[21] 0.00541657
*RES
1 *419:io_oeb_low[1] *52:7 8.685 
2 *52:7 *52:9 346.23 
3 *52:9 *52:11 4.5 
4 *52:11 io_oeb[21] 318.465 
*END

*D_NET *53 0.500825
*CONN
*P io_oeb[22] O
*I *419:io_oeb_high[0] O *D J1Asic
*CAP
1 io_oeb[22] 0.00292118
2 *419:io_oeb_high[0] 0.000632266
3 *53:13 0.119377
4 *53:11 0.116456
5 *53:9 0.000394385
6 *53:7 0.00102665
7 *53:9 *54:15 0.00820521
8 *53:9 *100:15 0.00238963
9 *53:9 *103:9 0.118542
10 *53:9 *313:17 0.0322994
11 *15:25 *53:9 0.000154129
12 *16:9 io_oeb[22] 0.0124906
13 *25:21 *53:9 0.0859365
*RES
1 *419:io_oeb_high[0] *53:7 7.965 
2 *53:7 *53:9 294.03 
3 *53:9 *53:11 4.5 
4 *53:11 *53:13 947.79 
5 *53:13 io_oeb[22] 48.015 
*END

*D_NET *54 0.762829
*CONN
*P io_oeb[23] O
*I *419:io_oeb_high[1] O *D J1Asic
*CAP
1 io_oeb[23] 0.0626045
2 *419:io_oeb_high[1] 0.00059818
3 *54:25 0.0634134
4 *54:19 0.0231719
5 *54:17 0.0223629
6 *54:15 0.018828
7 *54:13 0.0194262
8 io_oeb[23] *58:16 0.00475602
9 io_oeb[23] *60:19 0.00946508
10 *54:15 *63:9 0.0204711
11 *54:15 *100:15 0.175108
12 *54:15 *101:9 0.0170091
13 *54:15 *102:9 0.0140456
14 *54:15 *103:9 0.0147423
15 *54:15 *313:17 0.00722497
16 *54:19 *62:13 0.0151166
17 *54:19 *103:13 0.00349117
18 *419:extInt[0] io_oeb[23] 0
19 *15:25 *54:15 0.00307498
20 *17:9 *54:19 0.137802
21 *18:9 io_oeb[23] 0.00957231
22 *22:9 io_oeb[23] 0.100889
23 *25:21 *54:15 0.00493705
24 *29:9 *54:19 0.00651258
25 *53:9 *54:15 0.00820521
*RES
1 *419:io_oeb_high[1] *54:13 16.7046 
2 *54:13 *54:15 150.573 
3 *54:15 *54:17 4.5 
4 *54:17 *54:19 345.16 
5 *54:19 *54:25 14.49 
6 *54:25 io_oeb[23] 610.425 
*END

*D_NET *55 0.386123
*CONN
*P io_oeb[24] O
*I *419:io_oeb_high[2] O *D J1Asic
*CAP
1 io_oeb[24] 0.000751969
2 *419:io_oeb_high[2] 0.000500574
3 *55:13 0.0239134
4 *55:11 0.0231614
5 *55:9 0.0420882
6 *55:7 0.0425887
7 *55:9 *56:9 0.210892
8 *55:13 *56:13 0.0339825
9 *52:9 *55:9 0.00824363
*RES
1 *419:io_oeb_high[2] *55:7 8.325 
2 *55:7 *55:9 614.25 
3 *55:9 *55:11 4.5 
4 *55:11 *55:13 259.83 
5 *55:13 io_oeb[24] 10.665 
*END

*D_NET *56 0.427715
*CONN
*P io_oeb[25] O
*I *419:io_oeb_high[3] O *D J1Asic
*CAP
1 io_oeb[25] 0.000812283
2 *419:io_oeb_high[3] 0.000539526
3 *56:13 0.0151235
4 *56:11 0.0143112
5 *56:9 0.0150763
6 *56:7 0.0156158
7 *51:43 *56:9 0
8 *52:9 *56:9 0.121362
9 *55:9 *56:9 0.210892
10 *55:13 *56:13 0.0339825
*RES
1 *419:io_oeb_high[3] *56:7 8.505 
2 *56:7 *56:9 525.33 
3 *56:9 *56:11 4.5 
4 *56:11 *56:13 191.61 
5 *56:13 io_oeb[25] 11.025 
*END

*D_NET *57 0.697311
*CONN
*P io_oeb[26] O
*I *419:io_oeb_high[4] O *D J1Asic
*CAP
1 io_oeb[26] 0.0015352
2 *419:io_oeb_high[4] 0.000110621
3 *57:13 0.0592798
4 *57:11 0.0577446
5 *57:9 0.00137229
6 *57:7 0.00148291
7 *57:9 *58:12 0.00136932
8 *57:9 *65:9 0.173192
9 *57:13 *63:13 0.164091
10 *18:13 *57:9 0.0144624
11 *21:9 *57:13 0.0442768
12 *21:13 *57:9 0.000393529
13 *22:13 *57:9 0.000951625
14 *26:13 *57:9 3.3721e-05
15 *27:13 *57:9 0.176233
16 *28:13 *57:9 0.000781963
*RES
1 *419:io_oeb_high[4] *57:7 5.085 
2 *57:7 *57:9 443.61 
3 *57:9 *57:11 4.5 
4 *57:11 *57:13 757.89 
5 *57:13 io_oeb[26] 16.065 
*END

*D_NET *58 0.827443
*CONN
*P io_oeb[27] O
*I *419:io_oeb_high[5] O *D J1Asic
*CAP
1 io_oeb[27] 0.00239525
2 *419:io_oeb_high[5] 2.95851e-05
3 *58:16 0.0415118
4 *58:14 0.0391165
5 *58:12 0.0286078
6 *58:10 0.0286374
7 *58:12 *60:15 0
8 *58:12 *64:6 0.0166562
9 *58:12 *65:9 0.0013698
10 *58:12 *90:6 0.0021684
11 *58:12 *313:15 0.000107496
12 *58:16 *60:19 0.223163
13 *58:16 *100:19 0.030497
14 io_oeb[23] *58:16 0.00475602
15 *17:13 *58:12 0.148495
16 *18:9 *58:16 0.0258159
17 *18:13 *58:12 0.194726
18 *26:13 *58:12 0.0218553
19 *27:9 *58:16 0.014396
20 *27:13 *58:12 0.00176955
21 *57:9 *58:12 0.00136932
*RES
1 *419:io_oeb_high[5] *58:10 13.6575 
2 *58:10 *58:12 237.551 
3 *58:12 *58:14 4.5 
4 *58:14 *58:16 689.198 
5 *58:16 io_oeb[27] 21.825 
*END

*D_NET *59 0.4581
*CONN
*P io_oeb[28] O
*I *419:io_oeb_high[6] O *D J1Asic
*CAP
1 io_oeb[28] 0.0026927
2 *419:io_oeb_high[6] 0.000639322
3 *59:16 0.0783731
4 *59:14 0.0756805
5 *59:12 0.0273778
6 *59:10 0.0280172
7 *59:12 *67:12 0.0195833
8 *59:12 *68:17 0.0188211
9 *59:12 *89:14 0.0184501
10 *59:16 *102:13 0.0108108
11 *419:extInt[1] *59:16 0.0216542
12 *25:13 *59:12 0.106593
13 *29:13 *59:12 0.0139768
14 *30:9 *59:16 0.00525478
15 *30:13 *59:12 0.0150399
16 *31:13 *59:12 0.0151347
*RES
1 *419:io_oeb_high[6] *59:10 17.1418 
2 *59:10 *59:12 169.664 
3 *59:12 *59:14 4.5 
4 *59:14 *59:16 616.818 
5 *59:16 io_oeb[28] 24.165 
*END

*D_NET *60 0.748082
*CONN
*P io_oeb[29] O
*I *419:io_oeb_high[7] O *D J1Asic
*CAP
1 io_oeb[29] 0.0023556
2 *419:io_oeb_high[7] 0.000383486
3 *60:19 0.00419875
4 *60:17 0.00184315
5 *60:15 0.0282451
6 *60:13 0.0286286
7 *60:15 *100:15 0.226091
8 *60:19 *100:19 0.000431955