*SPEF "ieee 1481-1999"
*DESIGN "user_project_wrapper"
*DATE "11:11:11 Fri 11 11, 1111"
*VENDOR "OpenRCX"
*PROGRAM "Parallel Extraction"
*VERSION "1.0"
*DESIGN_FLOW "NAME_SCOPE LOCAL" "PIN_CAP NONE"
*DIVIDER /
*DELIMITER :
*BUS_DELIMITER []
*T_UNIT 1 NS
*C_UNIT 1 PF
*R_UNIT 1 OHM
*L_UNIT 1 HENRY

*NAME_MAP
*1 io_in[0]
*2 io_in[10]
*3 io_in[11]
*4 io_in[12]
*5 io_in[13]
*6 io_in[14]
*7 io_in[15]
*8 io_in[16]
*9 io_in[17]
*10 io_in[18]
*11 io_in[19]
*12 io_in[1]
*13 io_in[20]
*14 io_in[21]
*15 io_in[22]
*16 io_in[23]
*17 io_in[24]
*18 io_in[25]
*19 io_in[26]
*20 io_in[27]
*21 io_in[28]
*22 io_in[29]
*23 io_in[2]
*24 io_in[30]
*25 io_in[31]
*26 io_in[32]
*27 io_in[33]
*28 io_in[34]
*29 io_in[35]
*30 io_in[36]
*31 io_in[37]
*32 io_in[3]
*33 io_in[4]
*34 io_in[5]
*35 io_in[6]
*36 io_in[7]
*37 io_in[8]
*38 io_in[9]
*39 io_oeb[0]
*40 io_oeb[10]
*41 io_oeb[11]
*42 io_oeb[12]
*43 io_oeb[13]
*44 io_oeb[14]
*45 io_oeb[15]
*46 io_oeb[16]
*47 io_oeb[17]
*48 io_oeb[18]
*49 io_oeb[19]
*50 io_oeb[1]
*51 io_oeb[20]
*52 io_oeb[21]
*53 io_oeb[22]
*54 io_oeb[23]
*55 io_oeb[24]
*56 io_oeb[25]
*57 io_oeb[26]
*58 io_oeb[27]
*59 io_oeb[28]
*60 io_oeb[29]
*61 io_oeb[2]
*62 io_oeb[30]
*63 io_oeb[31]
*64 io_oeb[32]
*65 io_oeb[33]
*66 io_oeb[34]
*67 io_oeb[35]
*68 io_oeb[36]
*69 io_oeb[37]
*70 io_oeb[3]
*71 io_oeb[4]
*72 io_oeb[5]
*73 io_oeb[6]
*74 io_oeb[7]
*75 io_oeb[8]
*76 io_oeb[9]
*77 io_out[0]
*78 io_out[10]
*79 io_out[11]
*80 io_out[12]
*81 io_out[13]
*82 io_out[14]
*83 io_out[15]
*84 io_out[16]
*85 io_out[17]
*86 io_out[18]
*87 io_out[19]
*88 io_out[1]
*89 io_out[20]
*90 io_out[21]
*91 io_out[22]
*92 io_out[23]
*93 io_out[24]
*94 io_out[25]
*95 io_out[26]
*96 io_out[27]
*97 io_out[28]
*98 io_out[29]
*99 io_out[2]
*100 io_out[30]
*101 io_out[31]
*102 io_out[32]
*103 io_out[33]
*104 io_out[34]
*105 io_out[35]
*106 io_out[36]
*107 io_out[37]
*108 io_out[3]
*109 io_out[4]
*110 io_out[5]
*111 io_out[6]
*112 io_out[7]
*113 io_out[8]
*114 io_out[9]
*115 la_data_in[0]
*116 la_data_in[10]
*117 la_data_in[11]
*118 la_data_in[12]
*119 la_data_in[13]
*120 la_data_in[14]
*121 la_data_in[15]
*122 la_data_in[16]
*123 la_data_in[17]
*124 la_data_in[18]
*125 la_data_in[19]
*126 la_data_in[1]
*127 la_data_in[20]
*128 la_data_in[21]
*129 la_data_in[22]
*130 la_data_in[23]
*131 la_data_in[24]
*132 la_data_in[25]
*133 la_data_in[26]
*134 la_data_in[27]
*135 la_data_in[28]
*136 la_data_in[29]
*137 la_data_in[2]
*138 la_data_in[30]
*139 la_data_in[31]
*140 la_data_in[32]
*141 la_data_in[33]
*142 la_data_in[34]
*143 la_data_in[35]
*144 la_data_in[36]
*145 la_data_in[37]
*146 la_data_in[38]
*147 la_data_in[39]
*148 la_data_in[3]
*149 la_data_in[40]
*150 la_data_in[41]
*151 la_data_in[42]
*152 la_data_in[43]
*153 la_data_in[44]
*154 la_data_in[45]
*155 la_data_in[46]
*156 la_data_in[47]
*157 la_data_in[48]
*158 la_data_in[49]
*159 la_data_in[4]
*160 la_data_in[50]
*161 la_data_in[51]
*162 la_data_in[52]
*163 la_data_in[53]
*164 la_data_in[54]
*165 la_data_in[55]
*166 la_data_in[56]
*167 la_data_in[57]
*168 la_data_in[58]
*169 la_data_in[59]
*170 la_data_in[5]
*171 la_data_in[60]
*172 la_data_in[61]
*173 la_data_in[62]
*174 la_data_in[63]
*175 la_data_in[6]
*176 la_data_in[7]
*177 la_data_in[8]
*178 la_data_in[9]
*179 la_data_out[0]
*180 la_data_out[10]
*181 la_data_out[11]
*182 la_data_out[12]
*183 la_data_out[13]
*184 la_data_out[14]
*185 la_data_out[15]
*186 la_data_out[16]
*187 la_data_out[17]
*188 la_data_out[18]
*189 la_data_out[19]
*190 la_data_out[1]
*191 la_data_out[20]
*192 la_data_out[21]
*193 la_data_out[22]
*194 la_data_out[23]
*195 la_data_out[24]
*196 la_data_out[25]
*197 la_data_out[26]
*198 la_data_out[27]
*199 la_data_out[28]
*200 la_data_out[29]
*201 la_data_out[2]
*202 la_data_out[30]
*203 la_data_out[31]
*204 la_data_out[32]
*205 la_data_out[33]
*206 la_data_out[34]
*207 la_data_out[35]
*208 la_data_out[36]
*209 la_data_out[37]
*210 la_data_out[38]
*211 la_data_out[39]
*212 la_data_out[3]
*213 la_data_out[40]
*214 la_data_out[41]
*215 la_data_out[42]
*216 la_data_out[43]
*217 la_data_out[44]
*218 la_data_out[45]
*219 la_data_out[46]
*220 la_data_out[47]
*221 la_data_out[48]
*222 la_data_out[49]
*223 la_data_out[4]
*224 la_data_out[50]
*225 la_data_out[51]
*226 la_data_out[52]
*227 la_data_out[53]
*228 la_data_out[54]
*229 la_data_out[55]
*230 la_data_out[56]
*231 la_data_out[57]
*232 la_data_out[58]
*233 la_data_out[59]
*234 la_data_out[5]
*235 la_data_out[60]
*236 la_data_out[61]
*237 la_data_out[62]
*238 la_data_out[63]
*239 la_data_out[6]
*240 la_data_out[7]
*241 la_data_out[8]
*242 la_data_out[9]
*243 la_oenb[0]
*244 la_oenb[10]
*245 la_oenb[11]
*246 la_oenb[12]
*247 la_oenb[13]
*248 la_oenb[14]
*249 la_oenb[15]
*250 la_oenb[16]
*251 la_oenb[17]
*252 la_oenb[18]
*253 la_oenb[19]
*254 la_oenb[1]
*255 la_oenb[20]
*256 la_oenb[21]
*257 la_oenb[22]
*258 la_oenb[23]
*259 la_oenb[24]
*260 la_oenb[25]
*261 la_oenb[26]
*262 la_oenb[27]
*263 la_oenb[28]
*264 la_oenb[29]
*265 la_oenb[2]
*266 la_oenb[30]
*267 la_oenb[31]
*268 la_oenb[32]
*269 la_oenb[33]
*270 la_oenb[34]
*271 la_oenb[35]
*272 la_oenb[36]
*273 la_oenb[37]
*274 la_oenb[38]
*275 la_oenb[39]
*276 la_oenb[3]
*277 la_oenb[40]
*278 la_oenb[41]
*279 la_oenb[42]
*280 la_oenb[43]
*281 la_oenb[44]
*282 la_oenb[45]
*283 la_oenb[46]
*284 la_oenb[47]
*285 la_oenb[48]
*286 la_oenb[49]
*287 la_oenb[4]
*288 la_oenb[50]
*289 la_oenb[51]
*290 la_oenb[52]
*291 la_oenb[53]
*292 la_oenb[54]
*293 la_oenb[55]
*294 la_oenb[56]
*295 la_oenb[57]
*296 la_oenb[58]
*297 la_oenb[59]
*298 la_oenb[5]
*299 la_oenb[60]
*300 la_oenb[61]
*301 la_oenb[62]
*302 la_oenb[63]
*303 la_oenb[6]
*304 la_oenb[7]
*305 la_oenb[8]
*306 la_oenb[9]
*307 user_clock2
*308 user_irq[0]
*309 user_irq[1]
*310 user_irq[2]
*313 wb_clk_i
*314 wb_rst_i
*315 wbs_ack_o
*316 wbs_adr_i[0]
*317 wbs_adr_i[10]
*318 wbs_adr_i[11]
*319 wbs_adr_i[12]
*320 wbs_adr_i[13]
*321 wbs_adr_i[14]
*322 wbs_adr_i[15]
*323 wbs_adr_i[16]
*324 wbs_adr_i[17]
*325 wbs_adr_i[18]
*326 wbs_adr_i[19]
*327 wbs_adr_i[1]
*328 wbs_adr_i[20]
*329 wbs_adr_i[21]
*330 wbs_adr_i[22]
*331 wbs_adr_i[23]
*332 wbs_adr_i[24]
*333 wbs_adr_i[25]
*334 wbs_adr_i[26]
*335 wbs_adr_i[27]
*336 wbs_adr_i[28]
*337 wbs_adr_i[29]
*338 wbs_adr_i[2]
*339 wbs_adr_i[30]
*340 wbs_adr_i[31]
*341 wbs_adr_i[3]
*342 wbs_adr_i[4]
*343 wbs_adr_i[5]
*344 wbs_adr_i[6]
*345 wbs_adr_i[7]
*346 wbs_adr_i[8]
*347 wbs_adr_i[9]
*348 wbs_cyc_i
*349 wbs_dat_i[0]
*350 wbs_dat_i[10]
*351 wbs_dat_i[11]
*352 wbs_dat_i[12]
*353 wbs_dat_i[13]
*354 wbs_dat_i[14]
*355 wbs_dat_i[15]
*356 wbs_dat_i[16]
*357 wbs_dat_i[17]
*358 wbs_dat_i[18]
*359 wbs_dat_i[19]
*360 wbs_dat_i[1]
*361 wbs_dat_i[20]
*362 wbs_dat_i[21]
*363 wbs_dat_i[22]
*364 wbs_dat_i[23]
*365 wbs_dat_i[24]
*366 wbs_dat_i[25]
*367 wbs_dat_i[26]
*368 wbs_dat_i[27]
*369 wbs_dat_i[28]
*370 wbs_dat_i[29]
*371 wbs_dat_i[2]
*372 wbs_dat_i[30]
*373 wbs_dat_i[31]
*374 wbs_dat_i[3]
*375 wbs_dat_i[4]
*376 wbs_dat_i[5]
*377 wbs_dat_i[6]
*378 wbs_dat_i[7]
*379 wbs_dat_i[8]
*380 wbs_dat_i[9]
*381 wbs_dat_o[0]
*382 wbs_dat_o[10]
*383 wbs_dat_o[11]
*384 wbs_dat_o[12]
*385 wbs_dat_o[13]
*386 wbs_dat_o[14]
*387 wbs_dat_o[15]
*388 wbs_dat_o[16]
*389 wbs_dat_o[17]
*390 wbs_dat_o[18]
*391 wbs_dat_o[19]
*392 wbs_dat_o[1]
*393 wbs_dat_o[20]
*394 wbs_dat_o[21]
*395 wbs_dat_o[22]
*396 wbs_dat_o[23]
*397 wbs_dat_o[24]
*398 wbs_dat_o[25]
*399 wbs_dat_o[26]
*400 wbs_dat_o[27]
*401 wbs_dat_o[28]
*402 wbs_dat_o[29]
*403 wbs_dat_o[2]
*404 wbs_dat_o[30]
*405 wbs_dat_o[31]
*406 wbs_dat_o[3]
*407 wbs_dat_o[4]
*408 wbs_dat_o[5]
*409 wbs_dat_o[6]
*410 wbs_dat_o[7]
*411 wbs_dat_o[8]
*412 wbs_dat_o[9]
*413 wbs_sel_i[0]
*414 wbs_sel_i[1]
*415 wbs_sel_i[2]
*416 wbs_sel_i[3]
*417 wbs_stb_i
*418 wbs_we_i
*419 j1a

*PORTS
io_in[0] I
io_in[10] I
io_in[11] I
io_in[12] I
io_in[13] I
io_in[14] I
io_in[15] I
io_in[16] I
io_in[17] I
io_in[18] I
io_in[19] I
io_in[1] I
io_in[20] I
io_in[21] I
io_in[22] I
io_in[23] I
io_in[24] I
io_in[25] I
io_in[26] I
io_in[27] I
io_in[28] I
io_in[29] I
io_in[2] I
io_in[30] I
io_in[31] I
io_in[32] I
io_in[33] I
io_in[34] I
io_in[35] I
io_in[36] I
io_in[37] I
io_in[3] I
io_in[4] I
io_in[5] I
io_in[6] I
io_in[7] I
io_in[8] I
io_in[9] I
io_oeb[0] O
io_oeb[10] O
io_oeb[11] O
io_oeb[12] O
io_oeb[13] O
io_oeb[14] O
io_oeb[15] O
io_oeb[16] O
io_oeb[17] O
io_oeb[18] O
io_oeb[19] O
io_oeb[1] O
io_oeb[20] O
io_oeb[21] O
io_oeb[22] O
io_oeb[23] O
io_oeb[24] O
io_oeb[25] O
io_oeb[26] O
io_oeb[27] O
io_oeb[28] O
io_oeb[29] O
io_oeb[2] O
io_oeb[30] O
io_oeb[31] O
io_oeb[32] O
io_oeb[33] O
io_oeb[34] O
io_oeb[35] O
io_oeb[36] O
io_oeb[37] O
io_oeb[3] O
io_oeb[4] O
io_oeb[5] O
io_oeb[6] O
io_oeb[7] O
io_oeb[8] O
io_oeb[9] O
io_out[0] O
io_out[10] O
io_out[11] O
io_out[12] O
io_out[13] O
io_out[14] O
io_out[15] O
io_out[16] O
io_out[17] O
io_out[18] O
io_out[19] O
io_out[1] O
io_out[20] O
io_out[21] O
io_out[22] O
io_out[23] O
io_out[24] O
io_out[25] O
io_out[26] O
io_out[27] O
io_out[28] O
io_out[29] O
io_out[2] O
io_out[30] O
io_out[31] O
io_out[32] O
io_out[33] O
io_out[34] O
io_out[35] O
io_out[36] O
io_out[37] O
io_out[3] O
io_out[4] O
io_out[5] O
io_out[6] O
io_out[7] O
io_out[8] O
io_out[9] O
la_data_in[0] I
la_data_in[10] I
la_data_in[11] I
la_data_in[12] I
la_data_in[13] I
la_data_in[14] I
la_data_in[15] I
la_data_in[16] I
la_data_in[17] I
la_data_in[18] I
la_data_in[19] I
la_data_in[1] I
la_data_in[20] I
la_data_in[21] I
la_data_in[22] I
la_data_in[23] I
la_data_in[24] I
la_data_in[25] I
la_data_in[26] I
la_data_in[27] I
la_data_in[28] I
la_data_in[29] I
la_data_in[2] I
la_data_in[30] I
la_data_in[31] I
la_data_in[32] I
la_data_in[33] I
la_data_in[34] I
la_data_in[35] I
la_data_in[36] I
la_data_in[37] I
la_data_in[38] I
la_data_in[39] I
la_data_in[3] I
la_data_in[40] I
la_data_in[41] I
la_data_in[42] I
la_data_in[43] I
la_data_in[44] I
la_data_in[45] I
la_data_in[46] I
la_data_in[47] I
la_data_in[48] I
la_data_in[49] I
la_data_in[4] I
la_data_in[50] I
la_data_in[51] I
la_data_in[52] I
la_data_in[53] I
la_data_in[54] I
la_data_in[55] I
la_data_in[56] I
la_data_in[57] I
la_data_in[58] I
la_data_in[59] I
la_data_in[5] I
la_data_in[60] I
la_data_in[61] I
la_data_in[62] I
la_data_in[63] I
la_data_in[6] I
la_data_in[7] I
la_data_in[8] I
la_data_in[9] I
la_data_out[0] O
la_data_out[10] O
la_data_out[11] O
la_data_out[12] O
la_data_out[13] O
la_data_out[14] O
la_data_out[15] O
la_data_out[16] O
la_data_out[17] O
la_data_out[18] O
la_data_out[19] O
la_data_out[1] O
la_data_out[20] O
la_data_out[21] O
la_data_out[22] O
la_data_out[23] O
la_data_out[24] O
la_data_out[25] O
la_data_out[26] O
la_data_out[27] O
la_data_out[28] O
la_data_out[29] O
la_data_out[2] O
la_data_out[30] O
la_data_out[31] O
la_data_out[32] O
la_data_out[33] O
la_data_out[34] O
la_data_out[35] O
la_data_out[36] O
la_data_out[37] O
la_data_out[38] O
la_data_out[39] O
la_data_out[3] O
la_data_out[40] O
la_data_out[41] O
la_data_out[42] O
la_data_out[43] O
la_data_out[44] O
la_data_out[45] O
la_data_out[46] O
la_data_out[47] O
la_data_out[48] O
la_data_out[49] O
la_data_out[4] O
la_data_out[50] O
la_data_out[51] O
la_data_out[52] O
la_data_out[53] O
la_data_out[54] O
la_data_out[55] O
la_data_out[56] O
la_data_out[57] O
la_data_out[58] O
la_data_out[59] O
la_data_out[5] O
la_data_out[60] O
la_data_out[61] O
la_data_out[62] O
la_data_out[63] O
la_data_out[6] O
la_data_out[7] O
la_data_out[8] O
la_data_out[9] O
la_oenb[0] I
la_oenb[10] I
la_oenb[11] I
la_oenb[12] I
la_oenb[13] I
la_oenb[14] I
la_oenb[15] I
la_oenb[16] I
la_oenb[17] I
la_oenb[18] I
la_oenb[19] I
la_oenb[1] I
la_oenb[20] I
la_oenb[21] I
la_oenb[22] I
la_oenb[23] I
la_oenb[24] I
la_oenb[25] I
la_oenb[26] I
la_oenb[27] I
la_oenb[28] I
la_oenb[29] I
la_oenb[2] I
la_oenb[30] I
la_oenb[31] I
la_oenb[32] I
la_oenb[33] I
la_oenb[34] I
la_oenb[35] I
la_oenb[36] I
la_oenb[37] I
la_oenb[38] I
la_oenb[39] I
la_oenb[3] I
la_oenb[40] I
la_oenb[41] I
la_oenb[42] I
la_oenb[43] I
la_oenb[44] I
la_oenb[45] I
la_oenb[46] I
la_oenb[47] I
la_oenb[48] I
la_oenb[49] I
la_oenb[4] I
la_oenb[50] I
la_oenb[51] I
la_oenb[52] I
la_oenb[53] I
la_oenb[54] I
la_oenb[55] I
la_oenb[56] I
la_oenb[57] I
la_oenb[58] I
la_oenb[59] I
la_oenb[5] I
la_oenb[60] I
la_oenb[61] I
la_oenb[62] I
la_oenb[63] I
la_oenb[6] I
la_oenb[7] I
la_oenb[8] I
la_oenb[9] I
user_clock2 I
user_irq[0] O
user_irq[1] O
user_irq[2] O
wb_clk_i I
wb_rst_i I
wbs_ack_o O
wbs_adr_i[0] I
wbs_adr_i[10] I
wbs_adr_i[11] I
wbs_adr_i[12] I
wbs_adr_i[13] I
wbs_adr_i[14] I
wbs_adr_i[15] I
wbs_adr_i[16] I
wbs_adr_i[17] I
wbs_adr_i[18] I
wbs_adr_i[19] I
wbs_adr_i[1] I
wbs_adr_i[20] I
wbs_adr_i[21] I
wbs_adr_i[22] I
wbs_adr_i[23] I
wbs_adr_i[24] I
wbs_adr_i[25] I
wbs_adr_i[26] I
wbs_adr_i[27] I
wbs_adr_i[28] I
wbs_adr_i[29] I
wbs_adr_i[2] I
wbs_adr_i[30] I
wbs_adr_i[31] I
wbs_adr_i[3] I
wbs_adr_i[4] I
wbs_adr_i[5] I
wbs_adr_i[6] I
wbs_adr_i[7] I
wbs_adr_i[8] I
wbs_adr_i[9] I
wbs_cyc_i I
wbs_dat_i[0] I
wbs_dat_i[10] I
wbs_dat_i[11] I
wbs_dat_i[12] I
wbs_dat_i[13] I
wbs_dat_i[14] I
wbs_dat_i[15] I
wbs_dat_i[16] I
wbs_dat_i[17] I
wbs_dat_i[18] I
wbs_dat_i[19] I
wbs_dat_i[1] I
wbs_dat_i[20] I
wbs_dat_i[21] I
wbs_dat_i[22] I
wbs_dat_i[23] I
wbs_dat_i[24] I
wbs_dat_i[25] I
wbs_dat_i[26] I
wbs_dat_i[27] I
wbs_dat_i[28] I
wbs_dat_i[29] I
wbs_dat_i[2] I
wbs_dat_i[30] I
wbs_dat_i[31] I
wbs_dat_i[3] I
wbs_dat_i[4] I
wbs_dat_i[5] I
wbs_dat_i[6] I
wbs_dat_i[7] I
wbs_dat_i[8] I
wbs_dat_i[9] I
wbs_dat_o[0] O
wbs_dat_o[10] O
wbs_dat_o[11] O
wbs_dat_o[12] O
wbs_dat_o[13] O
wbs_dat_o[14] O
wbs_dat_o[15] O
wbs_dat_o[16] O
wbs_dat_o[17] O
wbs_dat_o[18] O
wbs_dat_o[19] O
wbs_dat_o[1] O
wbs_dat_o[20] O
wbs_dat_o[21] O
wbs_dat_o[22] O
wbs_dat_o[23] O
wbs_dat_o[24] O
wbs_dat_o[25] O
wbs_dat_o[26] O
wbs_dat_o[27] O
wbs_dat_o[28] O
wbs_dat_o[29] O
wbs_dat_o[2] O
wbs_dat_o[30] O
wbs_dat_o[31] O
wbs_dat_o[3] O
wbs_dat_o[4] O
wbs_dat_o[5] O
wbs_dat_o[6] O
wbs_dat_o[7] O
wbs_dat_o[8] O
wbs_dat_o[9] O
wbs_sel_i[0] I
wbs_sel_i[1] I
wbs_sel_i[2] I
wbs_sel_i[3] I
wbs_stb_i I
wbs_we_i I

*D_NET *15 0.254555
*CONN
*P io_in[22] I
*I *419:tck I *D J1Asic
*CAP
1 io_in[22] 0.0013281
2 *419:tck 0.00031224
3 *15:19 0.00287496
4 *15:13 0.117833
5 *15:11 0.116598
6 *419:tck *419:tdi 1.76936e-05
7 *15:11 *53:20 0.000205582
8 *15:19 *17:13 0
9 *15:19 *52:10 0.0153851
*RES
1 io_in[22] *15:11 19.575 
2 *15:11 *15:13 941.31 
3 *15:13 *15:19 49.59 
4 *15:19 *419:tck 10.53 
*END

*D_NET *16 0.225627
*CONN
*P io_in[23] I
*I *419:tms I *D J1Asic
*CAP
1 io_in[23] 0.00107539
2 *419:tms 9.15802e-05
3 *16:13 0.057526
4 *16:11 0.0574344
5 *16:9 0.00864625
6 *16:7 0.00972164
7 *16:13 io_oeb[23] 0.00889784
8 *16:13 *419:extInt[0] 0.0682203
9 *16:13 *17:9 0
10 *16:13 *28:9 0.00422982
11 *16:13 *62:13 0.00390865
12 *16:13 *64:10 0.00587544
*RES
1 io_in[23] *16:7 12.825 
2 *16:7 *16:9 69.93 
3 *16:9 *16:11 4.5 
4 *16:11 *16:13 721.71 
5 *16:13 *419:tms 5.085 
*END

*D_NET *17 0.5826
*CONN
*P io_in[24] I
*I *419:tdi I *D J1Asic
*CAP
1 io_in[24] 0.00226675
2 *419:tdi 0.000506977
3 *17:13 0.0150517
4 *17:11 0.0145447
5 *17:9 0.0704947
6 *17:7 0.0727614
7 *17:9 io_oeb[23] 0.119809
8 *17:9 *26:9 0.0349779
9 *17:9 *62:13 0.189226
10 *17:13 *18:13 0.0137172
11 *17:13 *21:13 0.0345605
12 *17:13 *51:27 0.0146656
13 *17:13 *52:10 0
14 *419:tck *419:tdi 1.76936e-05
15 *15:19 *17:13 0
16 *16:13 *17:9 0
*RES
1 io_in[24] *17:7 21.465 
2 *17:7 *17:9 934.83 
3 *17:9 *17:11 4.5 
4 *17:11 *17:13 221.13 
5 *17:13 *419:tdi 16.65 
*END

*D_NET *18 0.453513
*CONN
*P io_in[25] I
*I *419:rx I *D J1Asic
*CAP
1 io_in[25] 0.00125892
2 *419:rx 0.000603719
3 *18:13 0.0420123
4 *18:11 0.0414086
5 *18:9 0.144722
6 *18:7 0.145981
7 *18:9 *29:15 0.00103841
8 *18:13 *21:13 0.0177352
9 *18:13 *24:13 0.013998
10 *18:13 *25:13 0.0181214
11 *18:13 *51:27 0.0129164
12 *17:13 *18:13 0.0137172
*RES
1 io_in[25] *18:7 13.905 
2 *18:7 *18:9 866.298 
3 *18:9 *18:11 4.5 
4 *18:11 *18:13 160.729 
5 *18:13 *419:rx 17.1418 
*END

*D_NET *19 0.235243
*CONN
*P io_in[26] I
*I *419:extInt[0] I *D J1Asic
*CAP
1 io_in[26] 0.002585
2 *419:extInt[0] 0.0544774
3 *19:7 0.0570624
4 *419:extInt[0] *419:extInt[1] 0.000733042
5 *419:extInt[0] *20:9 0.0458314
6 *419:extInt[0] *28:9 0.00633403
7 *16:13 *419:extInt[0] 0.0682203
*RES
1 io_in[26] *19:7 23.265 
2 *19:7 *419:extInt[0] 801.585 
*END

*D_NET *20 0.202346
*CONN
*P io_in[27] I
*I *419:extInt[1] I *D J1Asic
*CAP
1 io_in[27] 0.0032545
2 *419:extInt[1] 0.0032086
3 *20:9 0.0746347
4 *20:7 0.0746806
5 *419:extInt[1] *314:7 3.58421e-06
6 *419:extInt[0] *419:extInt[1] 0.000733042
7 *419:extInt[0] *20:9 0.0458314
*RES
1 io_in[27] *20:7 24.165 
2 *20:7 *20:9 707.22 
3 *20:9 *419:extInt[1] 26.685 
*END

*D_NET *21 0.550593
*CONN
*P io_in[28] I
*I *419:extInt[2] I *D J1Asic
*CAP
1 io_in[28] 0.00145124
2 *419:extInt[2] 0.000569139
3 *21:13 0.00252879
4 *21:11 0.00195965
5 *21:9 0.0902911
6 *21:7 0.0917423
7 *21:9 io_oeb[37] 0.00168815
8 *21:9 *29:9 0.0602166
9 *21:9 *29:15 0.00151728
10 *21:9 *58:13 0
11 *21:9 *104:10 0
12 *21:9 *105:10 0
13 *21:13 *25:13 0.161283
14 *21:13 *51:27 0.0850496
15 *17:13 *21:13 0.0345605
16 *18:13 *21:13 0.0177352
*RES
1 io_in[28] *21:7 13.365 
2 *21:7 *21:9 662.31 
3 *21:9 *21:11 4.5 
4 *21:11 *21:13 403.11 
5 *21:13 *419:extInt[2] 17.01 
*END

*D_NET *22 0.525519
*CONN
*P io_in[29] I
*I *419:boardClkLocked I *D J1Asic
*CAP
1 io_in[29] 0.00155994
2 *419:boardClkLocked 0.000198198
3 *22:13 0.000815366
4 *22:11 0.000617169
5 *22:9 0.0480815
6 *22:7 0.0496414
7 *22:9 *25:9 0.180073
8 *22:9 *56:19 0.0532097
9 *22:9 *101:13 0.000855473
10 *22:13 *29:17 3.1571e-05
11 *22:13 *30:13 0.0004105
12 *22:13 *31:13 0.0937621
13 *22:13 *53:12 0.00133912
14 *22:13 *66:9 0.0949233
*RES
1 io_in[29] *22:7 16.065 
2 *22:7 *22:9 599.49 
3 *22:9 *22:11 4.5 
4 *22:11 *22:13 236.25 
5 *22:13 *419:boardClkLocked 5.445 
*END

*D_NET *24 0.495459
*CONN
*P io_in[30] I
*I *419:pmodA_read[0] I *D J1Asic
*CAP
1 io_in[30] 0.00194385
2 *419:pmodA_read[0] 0.000568909
3 *24:13 0.0281271
4 *24:11 0.0275582
5 *24:9 0.0527963
6 *24:7 0.0547402
7 *24:9 *27:9 0
8 *24:9 *102:13 0.13573
9 *24:13 *25:13 0.179997
10 *18:13 *24:13 0.013998
*RES
1 io_in[30] *24:7 18.765 
2 *24:7 *24:9 525.87 
3 *24:9 *24:11 4.5 
4 *24:11 *24:13 446.31 
5 *24:13 *419:pmodA_read[0] 17.19 
*END

*D_NET *25 0.743855
*CONN
*P io_in[31] I
*I *419:pmodA_read[1] I *D J1Asic
*CAP
1 io_in[31] 0.00163525
2 *419:pmodA_read[1] 0.000530272
3 *25:13 0.0033923
4 *25:11 0.00286202
5 *25:9 0.00171765
6 *25:7 0.0033529
7 *25:9 *56:19 0.0160563
8 *25:9 *101:13 0.171147
9 *25:13 *51:27 0.00368685
10 *18:13 *25:13 0.0181214
11 *21:13 *25:13 0.161283
12 *22:9 *25:9 0.180073
13 *24:13 *25:13 0.179997
*RES
1 io_in[31] *25:7 16.245 
2 *25:7 *25:9 458.01 
3 *25:9 *25:11 4.5 
4 *25:11 *25:13 450.99 
5 *25:13 *419:pmodA_read[1] 17.01 
*END

*D_NET *26 0.482294
*CONN
*P io_in[32] I
*I *419:pmodA_read[2] I *D J1Asic
*CAP
1 io_in[32] 0.00244696
2 *419:pmodA_read[2] 0.000172981
3 *26:13 0.0425771
4 *26:11 0.0424041
5 *26:9 0.0382657
6 *26:7 0.0407127
7 *26:9 *60:19 0.0686989
8 *26:9 *62:13 0.00478615
9 *26:9 *64:10 0.00595031
10 *26:13 *419:reset 0.000397075
11 *26:13 *28:13 0.00642942
12 *26:13 *29:17 0.00680987
13 *26:13 *30:13 0.00596871
14 *26:13 *31:13 0.00540564
15 *26:13 *53:12 0.1243
16 *26:13 *56:15 0
17 *26:13 *60:15 0
18 *26:13 *64:6 0.0209235
19 *26:13 *68:6 0.0158513
20 *26:13 *105:6 0.0152157
21 *17:9 *26:9 0.0349779
*RES
1 io_in[32] *26:7 21.465 
2 *26:7 *26:9 394.358 
3 *26:9 *26:11 4.5 
4 *26:11 *26:13 184.707 
5 *26:13 *419:pmodA_read[2] 14.4675 
*END

*D_NET *27 0.484909
*CONN
*P io_in[33] I
*I *419:pmodA_read[3] I *D J1Asic
*CAP
1 io_in[33] 0.00179463
2 *419:pmodA_read[3] 0.000479415
3 *27:13 0.00152533
4 *27:11 0.00104591
5 *27:9 0.0247546
6 *27:7 0.0265492
7 *27:9 *63:13 0.0582755
8 *27:9 *101:13 8.12856e-06
9 *27:9 *102:13 0
10 *27:13 *56:15 0.00732251
11 *27:13 *60:15 0.00126837
12 *27:13 *69:9 0.000275204
13 *27:13 *90:15 0.00885312
14 *27:13 *100:9 0.175769
15 *27:13 *101:9 0.000812457
16 *27:13 *102:9 0.176176
17 *24:9 *27:9 0
*RES
1 io_in[33] *27:7 17.145 
2 *27:7 *27:9 329.49 
3 *27:9 *27:11 4.5 
4 *27:11 *27:13 441.45 
5 *27:13 *419:pmodA_read[3] 7.605 
*END

*D_NET *28 0.449626
*CONN
*P io_in[34] I
*I *419:pmodA_read[4] I *D J1Asic
*CAP
1 io_in[34] 0.0026216
2 *419:pmodA_read[4] 6.55518e-05
3 *28:13 0.000967185
4 *28:11 0.000901633
5 *28:9 0.0145288
6 *28:7 0.0171504
7 *419:pmodA_read[4] *62:7 6.8054e-06
8 *28:9 *64:10 0.0405247
9 *28:9 *100:15 0.0119415
10 *28:13 *419:pmodA_read[5] 0.00150307
11 *28:13 *29:17 0.165538
12 *28:13 *30:13 0.166584
13 *28:13 *53:12 0.00955921
14 *28:13 *64:6 0.000133143
15 *28:13 *66:9 0.000606978
16 *419:extInt[0] *28:9 0.00633403
17 *16:13 *28:9 0.00422982
18 *26:13 *28:13 0.00642942
*RES
1 io_in[34] *28:7 22.185 
2 *28:7 *28:9 258.75 
3 *28:9 *28:11 4.5 
4 *28:11 *28:13 420.21 
5 *28:13 *419:pmodA_read[4] 4.905 
*END

*D_NET *29 0.38306
*CONN
*P io_in[35] I
*I *419:pmodA_read[5] I *D J1Asic
*CAP
1 io_in[35] 0.00130088
2 *419:pmodA_read[5] 7.88898e-05
3 *29:17 0.00225115
4 *29:15 0.00525002
5 *29:9 0.0174098
6 *29:7 0.0156329
7 *419:pmodA_read[5] *53:12 0.000345434
8 *419:pmodA_read[5] *64:6 0.00325917
9 *29:15 io_oeb[37] 0.00131518
10 *29:17 *419:reset 0.0174752
11 *29:17 *30:13 0.000900001
12 *29:17 *53:12 0.0110438
13 *29:17 *64:6 0.0691385
14 *29:17 *66:9 0.000161931
15 *29:17 *68:6 0.000842709
16 *18:9 *29:15 0.00103841
17 *21:9 *29:9 0.0602166
18 *21:9 *29:15 0.00151728
19 *22:13 *29:17 3.1571e-05
20 *26:13 *29:17 0.00680987
21 *28:13 *419:pmodA_read[5] 0.00150307
22 *28:13 *29:17 0.165538
*RES
1 io_in[35] *29:7 13.545 
2 *29:7 *29:9 162.9 
3 *29:9 *29:15 32.67 
4 *29:15 *29:17 419.4 
5 *29:17 *419:pmodA_read[5] 12.87 
*END

*D_NET *30 0.455589
*CONN
*P io_in[36] I
*I *419:pmodA_read[6] I *D J1Asic
*CAP
1 io_in[36] 0.00174736
2 *419:pmodA_read[6] 0.000110575
3 *30:13 0.00106001
4 *30:11 0.000949438
5 *30:9 0.000147628
6 *30:7 0.00189499
7 *419:pmodA_read[6] *419:pmodA_read[7] 7.05627e-06
8 *30:9 *56:19 0.0034652
9 *30:9 *63:13 0.0481971
10 *30:9 *101:13 0.0482051
11 *30:13 *31:13 0.167317
12 *30:13 *53:12 0.00848305
13 *30:13 *66:9 0.000141521
14 *22:13 *30:13 0.0004105
15 *26:13 *30:13 0.00596871
16 *28:13 *30:13 0.166584
17 *29:17 *30:13 0.000900001
*RES
1 io_in[36] *30:7 16.605 
2 *30:7 *30:9 122.85 
3 *30:9 *30:11 4.5 
4 *30:11 *30:13 419.31 
5 *30:13 *419:pmodA_read[6] 5.085 
*END

*D_NET *31 0.34598
*CONN
*P io_in[37] I
*I *419:pmodA_read[7] I *D J1Asic
*CAP
1 io_in[37] 0.00221136
2 *419:pmodA_read[7] 0.000149527
3 *31:13 0.00133524
4 *31:11 0.00118571
5 *31:9 0.0049343
6 *31:7 0.00714566
7 *31:9 *102:13 0.0202574
8 *31:13 *53:12 0.00788897
9 *31:13 *66:9 0.0343802
10 *419:pmodA_read[6] *419:pmodA_read[7] 7.05627e-06
11 *22:13 *31:13 0.0937621
12 *26:13 *31:13 0.00540564
13 *30:13 *31:13 0.167317
*RES
1 io_in[37] *31:7 19.125 
2 *31:7 *31:9 54.99 
3 *31:9 *31:11 4.5 
4 *31:11 *31:13 415.71 
5 *31:13 *419:pmodA_read[7] 5.265 
*END

*D_NET *51 0.677236
*CONN
*P io_oeb[20] O
*I *419:io_oeb_low[0] O *D J1Asic
*CAP
1 io_oeb[20] 0.00337269
2 *419:io_oeb_low[0] 0.00509971
3 *51:225 0.0053827
4 *51:219 0.00659992
5 *51:205 0.00890682
6 *51:185 0.00776562
7 *51:169 0.00798444
8 *51:153 0.00920454
9 *51:141 0.00819029
10 *51:133 0.00536223
11 *51:119 0.0062772
12 *51:103 0.00827811
13 *51:87 0.0088975
14 *51:77 0.00942381
15 *51:61 0.008829
16 *51:45 0.00850033
17 *51:31 0.0126015
18 *51:29 0.00856219
19 *51:27 0.0116875
20 *51:25 0.0119329
21 *51:19 0.00903329
22 *51:17 0.00949196
23 *51:9 0.00580377
24 io_oeb[20] *89:17 0.0143935
25 *51:9 *66:9 0
26 *51:9 *69:9 0
27 *51:19 *52:8 0
28 *51:19 *52:10 0.0277316
29 *51:31 *53:16 0
30 *51:31 *89:13 0.0818029
31 *51:31 *90:19 0.249801
32 *17:13 *51:27 0.0146656
33 *18:13 *51:27 0.0129164
34 *21:13 *51:27 0.0850496
35 *25:13 *51:27 0.00368685
*RES
1 *419:io_oeb_low[0] *51:9 45.675 
2 *51:9 *51:17 14.04 
3 *51:17 *51:19 108.45 
4 *51:19 *51:25 10.89 
5 *51:25 *51:27 229.59 
6 *51:27 *51:29 4.5 
7 *51:29 *51:31 625.59 
8 *51:31 *51:45 43.74 
9 *51:45 *51:61 46.53 
10 *51:61 *51:77 47.43 
11 *51:77 *51:87 46.17 
12 *51:87 *51:103 47.52 
13 *51:103 *51:119 47.61 
14 *51:119 *51:133 31.95 
15 *51:133 *51:141 36.18 
16 *51:141 *51:153 44.46 
17 *51:153 *51:169 46.17 
18 *51:169 *51:185 44.1 
19 *51:185 *51:205 47.97 
20 *51:205 *51:219 48.78 
21 *51:219 *51:225 24.21 
22 *51:225 io_oeb[20] 48.555 
*END

*D_NET *52 0.432776
*CONN
*P io_oeb[21] O
*I *419:io_oeb_low[1] O *D J1Asic
*CAP
1 io_oeb[21] 0.0010524
2 *419:io_oeb_low[1] 0.00243993
3 *52:20 0.00353984
4 *52:14 0.117886
5 *52:12 0.115399
6 *52:10 0.0208398
7 *52:8 0.0232797
8 *52:10 *103:6 0.000591801
9 *52:10 *106:12 0.0906659
10 *52:10 *107:12 0.000169687
11 *52:20 *53:20 0.00277836
12 *52:20 *89:17 0.0110168
13 *15:19 *52:10 0.0153851
14 *17:13 *52:10 0
15 *51:19 *52:8 0
16 *51:19 *52:10 0.0277316
*RES
1 *419:io_oeb_low[1] *52:8 24.57 
2 *52:8 *52:10 310.68 
3 *52:10 *52:12 4.5 
4 *52:12 *52:14 942.21 
5 *52:14 *52:20 45.27 
6 *52:20 io_oeb[21] 8.145 
*END

*D_NET *53 0.461563
*CONN
*P io_oeb[22] O
*I *419:io_oeb_high[0] O *D J1Asic
*CAP
1 io_oeb[22] 0.00107539
2 *419:io_oeb_high[0] 4.45375e-05
3 *53:20 0.0100426
4 *53:18 0.00896721
5 *53:16 0.105911
6 *53:14 0.105911
7 *53:12 0.0203112
8 *53:10 0.0203558
9 *53:12 *419:reset 0.00137213
10 *53:12 *60:15 0
11 *53:16 *89:13 0
12 *53:16 *90:19 0.021628
13 *419:pmodA_read[5] *53:12 0.000345434
14 *15:11 *53:20 0.000205582
15 *22:13 *53:12 0.00133912
16 *26:13 *53:12 0.1243
17 *28:13 *53:12 0.00955921
18 *29:17 *53:12 0.0110438
19 *30:13 *53:12 0.00848305
20 *31:13 *53:12 0.00788897
21 *51:31 *53:16 0
22 *52:20 *53:20 0.00277836
*RES
1 *419:io_oeb_high[0] *53:10 13.7668 
2 *53:10 *53:12 129.573 
3 *53:12 *53:14 4.5 
4 *53:14 *53:16 944.367 
5 *53:16 *53:18 4.5 
6 *53:18 *53:20 76.77 
7 *53:20 io_oeb[22] 12.825 
*END

*D_NET *54 0.444183
*CONN
*P io_oeb[23] O
*I *419:io_oeb_high[1] O *D J1Asic
*CAP
1 io_oeb[23] 0.0174582
2 *419:io_oeb_high[1] 0.000617401
3 *54:11 0.0174582
4 *54:9 0.0336981
5 *54:7 0.0343155
6 *54:9 *55:9 0.210295
7 *54:9 *57:9 0.0016335
8 *16:13 io_oeb[23] 0.00889784
9 *17:9 io_oeb[23] 0.119809
*RES
1 *419:io_oeb_high[1] *54:7 8.865 
2 *54:7 *54:9 531.99 
3 *54:9 *54:11 4.5 
4 *54:11 io_oeb[23] 318.285 
*END

*D_NET *55 0.507152
*CONN
*P io_oeb[24] O
*I *419:io_oeb_high[2] O *D J1Asic
*CAP
1 io_oeb[24] 0.000795128
2 *419:io_oeb_high[2] 0.000594423
3 *55:13 0.0276845
4 *55:11 0.0268894
5 *55:9 0.00209096
6 *55:7 0.00268538
7 *55:9 *57:9 0.214239
8 *55:9 *67:9 0
9 *55:13 *57:13 0.0218786
10 *54:9 *55:9 0.210295
*RES
1 *419:io_oeb_high[2] *55:7 8.685 
2 *55:7 *55:9 533.97 
3 *55:9 *55:11 4.5 
4 *55:11 *55:13 259.47 
5 *55:13 io_oeb[24] 11.025 
*END

*D_NET *56 0.678955
*CONN
*P io_oeb[25] O
*I *419:io_oeb_high[3] O *D J1Asic
*CAP
1 io_oeb[25] 0.00153478
2 *419:io_oeb_high[3] 0.000510502
3 *56:19 0.103735
4 *56:17 0.1022
5 *56:15 0.0124601
6 *56:13 0.0129706
7 *56:15 *60:15 0.196912
8 *56:15 *62:9 0.00712146
9 *56:15 *63:9 0.0149389
10 *56:15 *90:15 0.0899868
11 *56:15 *100:9 0.0094816
12 *56:15 *101:9 0.0193938
13 *56:15 *102:9 0.00774128
14 *56:15 *313:11 0.00545114
15 *56:19 *101:13 0.0144634
16 *22:9 *56:19 0.0532097
17 *25:9 *56:19 0.0160563
18 *26:13 *56:15 0
19 *27:13 *56:15 0.00732251
20 *30:9 *56:19 0.0034652
*RES
1 *419:io_oeb_high[3] *56:13 16.4154 
2 *56:13 *56:15 171.725 
3 *56:15 *56:17 4.5 
4 *56:17 *56:19 828.17 
5 *56:19 io_oeb[25] 16.065 
*END

*D_NET *57 0.548312
*CONN
*P io_oeb[26] O
*I *419:io_oeb_high[4] O *D J1Asic
*CAP
1 io_oeb[26] 0.000855442
2 *419:io_oeb_high[4] 0.00055547
3 *57:13 0.0070441
4 *57:11 0.00618866
5 *57:9 0.00927527
6 *57:7 0.00983074
7 *57:9 *58:9 0.266982
8 *57:9 *67:9 0
9 *57:13 *58:13 0.00982936
10 *54:9 *57:9 0.0016335
11 *55:9 *57:9 0.214239
12 *55:13 *57:13 0.0218786
*RES
1 *419:io_oeb_high[4] *57:7 8.505 
2 *57:7 *57:9 665.37 
3 *57:9 *57:11 4.5 
4 *57:11 *57:13 123.57 
5 *57:13 io_oeb[26] 11.385 
*END

*D_NET *58 0.408679
*CONN
*P io_oeb[27] O
*I *419:io_oeb_high[5] O *D J1Asic
*CAP
1 io_oeb[27] 0.000915755
2 *419:io_oeb_high[5] 0.000516518
3 *58:13 0.00512908
4 *58:11 0.00421332
5 *58:9 0.0602885
6 *58:7 0.060805
7 *58:9 *67:9 0
8 *21:9 *58:13 0
9 *57:9 *58:9 0.266982
10 *57:13 *58:13 0.00982936
*RES
1 *419:io_oeb_high[5] *58:7 8.325 
2 *58:7 *58:9 808.65 
3 *58:9 *58:11 4.5 
4 *58:11 *58:13 55.71 
5 *58:13 io_oeb[27] 11.745 
*END

*D_NET *59 0.338738
*CONN
*P io_oeb[28] O
*I *419:io_oeb_high[6] O *D J1Asic
*CAP
1 io_oeb[28] 0.0013323
2 *419:io_oeb_high[6] 0.000557573
3 *59:13 0.096225
4 *59:11 0.0948927
5 *59:9 0.0299544
6 *59:7 0.030512
7 io_oeb[28] *67:13 0.000331664
8 *59:13 *65:25 0.0849325
*RES
1 *419:io_oeb_high[6] *59:7 9.045 
2 *59:7 *59:9 244.938 
3 *59:9 *59:11 4.5 
4 *59:11 *59:13 389.056 
5 *59:13 io_oeb[28] 18.9868 
*END

*D_NET *60 0.616627
*CONN
*P io_oeb[29] O
*I *419:io_oeb_high[7] O *D J1Asic
*CAP
1 io_oeb[29] 0.000821301
2 *419:io_oeb_high[7] 0.000366937
3 *60:27 0.0176414
4 *60:25 0.018583
5 *60:19 0.013259
6 *60:17 0.0114961
7 *60:15 0.0335557
8 *60:13 0.0339226
9 *60:15 *63:9 0.000837034
10 *60:15 *100:9 0.00158522
11 *60:15 *101:9 0.000399218
12 *60:15 *102:9 0.00114666
13 *60:19 *62:13 0.00744091
14 *60:19 *64:10 0.00583248
15 *60:19 *100:15 0.000847251
16 *60:27 *65:29 0.00901782
17 *60:27 *67:13 0.0080445
18 *60:27 *100:21 0.132586
19 *60:27 *103:10 0.0523652
20 *26:9 *60:19 0.0686989
21 *26:13 *60:15 0
22 *27:13 *60:15 0.00126837
23 *53:12 *60:15 0
24 *56:15 *60:15 0.196912
*RES
1 *419:io_oeb_high[7] *60:13 16.1261 
2 *60:13 *60:15 216.093 
3 *60:15 *60:17 4.5 
4 *60:17 *60:19 173.041 
5 *60:19 *60:25 19.71 
6 *60:25 *60:27 382.77 
7 *60:27 io_oeb[29] 11.025 
*END

*D_NET *62 0.676887
*CONN
*P io_oeb[30] O
*I *419:pmodA_oeb[0] O *D J1Asic
*CAP
1 io_oeb[30] 0.00242746
2 *419:pmodA_oeb[0] 0.000560205
3 *62:13 0.0104422
4 *62:11 0.0080147
5 *62:9 0.00114816
6 *62:7 0.00170837
7 *62:9 *69:9 0.0387063
8 *62:9 *90:15 0.00674257
9 *62:9 *102:9 0.169909
10 *62:9 *313:11 0.0871522
11 *62:13 *64:10 0.137124
12 *62:13 *100:15 0.000462462
13 *419:pmodA_read[4] *62:7 6.8054e-06
14 *16:13 *62:13 0.00390865
15 *17:9 *62:13 0.189226
16 *26:9 *62:13 0.00478615
17 *56:15 *62:9 0.00712146
18 *60:19 *62:13 0.00744091