*SPEF "ieee 1481-1999"
*DESIGN "user_project_wrapper"
*DATE "11:11:11 Fri 11 11, 1111"
*VENDOR "OpenRCX"
*PROGRAM "Parallel Extraction"
*VERSION "1.0"
*DESIGN_FLOW "NAME_SCOPE LOCAL" "PIN_CAP NONE"
*DIVIDER /
*DELIMITER :
*BUS_DELIMITER []
*T_UNIT 1 NS
*C_UNIT 1 PF
*R_UNIT 1 OHM
*L_UNIT 1 HENRY

*NAME_MAP
*1 io_in[0]
*2 io_in[10]
*3 io_in[11]
*4 io_in[12]
*5 io_in[13]
*6 io_in[14]
*7 io_in[15]
*8 io_in[16]
*9 io_in[17]
*10 io_in[18]
*11 io_in[19]
*12 io_in[1]
*13 io_in[20]
*14 io_in[21]
*15 io_in[22]
*16 io_in[23]
*17 io_in[24]
*18 io_in[25]
*19 io_in[26]
*20 io_in[27]
*21 io_in[28]
*22 io_in[29]
*23 io_in[2]
*24 io_in[30]
*25 io_in[31]
*26 io_in[32]
*27 io_in[33]
*28 io_in[34]
*29 io_in[35]
*30 io_in[36]
*31 io_in[37]
*32 io_in[3]
*33 io_in[4]
*34 io_in[5]
*35 io_in[6]
*36 io_in[7]
*37 io_in[8]
*38 io_in[9]
*39 io_oeb[0]
*40 io_oeb[10]
*41 io_oeb[11]
*42 io_oeb[12]
*43 io_oeb[13]
*44 io_oeb[14]
*45 io_oeb[15]
*46 io_oeb[16]
*47 io_oeb[17]
*48 io_oeb[18]
*49 io_oeb[19]
*50 io_oeb[1]
*51 io_oeb[20]
*52 io_oeb[21]
*53 io_oeb[22]
*54 io_oeb[23]
*55 io_oeb[24]
*56 io_oeb[25]
*57 io_oeb[26]
*58 io_oeb[27]
*59 io_oeb[28]
*60 io_oeb[29]
*61 io_oeb[2]
*62 io_oeb[30]
*63 io_oeb[31]
*64 io_oeb[32]
*65 io_oeb[33]
*66 io_oeb[34]
*67 io_oeb[35]
*68 io_oeb[36]
*69 io_oeb[37]
*70 io_oeb[3]
*71 io_oeb[4]
*72 io_oeb[5]
*73 io_oeb[6]
*74 io_oeb[7]
*75 io_oeb[8]
*76 io_oeb[9]
*77 io_out[0]
*78 io_out[10]
*79 io_out[11]
*80 io_out[12]
*81 io_out[13]
*82 io_out[14]
*83 io_out[15]
*84 io_out[16]
*85 io_out[17]
*86 io_out[18]
*87 io_out[19]
*88 io_out[1]
*89 io_out[20]
*90 io_out[21]
*91 io_out[22]
*92 io_out[23]
*93 io_out[24]
*94 io_out[25]
*95 io_out[26]
*96 io_out[27]
*97 io_out[28]
*98 io_out[29]
*99 io_out[2]
*100 io_out[30]
*101 io_out[31]
*102 io_out[32]
*103 io_out[33]
*104 io_out[34]
*105 io_out[35]
*106 io_out[36]
*107 io_out[37]
*108 io_out[3]
*109 io_out[4]
*110 io_out[5]
*111 io_out[6]
*112 io_out[7]
*113 io_out[8]
*114 io_out[9]
*115 la_data_in[0]
*116 la_data_in[10]
*117 la_data_in[11]
*118 la_data_in[12]
*119 la_data_in[13]
*120 la_data_in[14]
*121 la_data_in[15]
*122 la_data_in[16]
*123 la_data_in[17]
*124 la_data_in[18]
*125 la_data_in[19]
*126 la_data_in[1]
*127 la_data_in[20]
*128 la_data_in[21]
*129 la_data_in[22]
*130 la_data_in[23]
*131 la_data_in[24]
*132 la_data_in[25]
*133 la_data_in[26]
*134 la_data_in[27]
*135 la_data_in[28]
*136 la_data_in[29]
*137 la_data_in[2]
*138 la_data_in[30]
*139 la_data_in[31]
*140 la_data_in[32]
*141 la_data_in[33]
*142 la_data_in[34]
*143 la_data_in[35]
*144 la_data_in[36]
*145 la_data_in[37]
*146 la_data_in[38]
*147 la_data_in[39]
*148 la_data_in[3]
*149 la_data_in[40]
*150 la_data_in[41]
*151 la_data_in[42]
*152 la_data_in[43]
*153 la_data_in[44]
*154 la_data_in[45]
*155 la_data_in[46]
*156 la_data_in[47]
*157 la_data_in[48]
*158 la_data_in[49]
*159 la_data_in[4]
*160 la_data_in[50]
*161 la_data_in[51]
*162 la_data_in[52]
*163 la_data_in[53]
*164 la_data_in[54]
*165 la_data_in[55]
*166 la_data_in[56]
*167 la_data_in[57]
*168 la_data_in[58]
*169 la_data_in[59]
*170 la_data_in[5]
*171 la_data_in[60]
*172 la_data_in[61]
*173 la_data_in[62]
*174 la_data_in[63]
*175 la_data_in[6]
*176 la_data_in[7]
*177 la_data_in[8]
*178 la_data_in[9]
*179 la_data_out[0]
*180 la_data_out[10]
*181 la_data_out[11]
*182 la_data_out[12]
*183 la_data_out[13]
*184 la_data_out[14]
*185 la_data_out[15]
*186 la_data_out[16]
*187 la_data_out[17]
*188 la_data_out[18]
*189 la_data_out[19]
*190 la_data_out[1]
*191 la_data_out[20]
*192 la_data_out[21]
*193 la_data_out[22]
*194 la_data_out[23]
*195 la_data_out[24]
*196 la_data_out[25]
*197 la_data_out[26]
*198 la_data_out[27]
*199 la_data_out[28]
*200 la_data_out[29]
*201 la_data_out[2]
*202 la_data_out[30]
*203 la_data_out[31]
*204 la_data_out[32]
*205 la_data_out[33]
*206 la_data_out[34]
*207 la_data_out[35]
*208 la_data_out[36]
*209 la_data_out[37]
*210 la_data_out[38]
*211 la_data_out[39]
*212 la_data_out[3]
*213 la_data_out[40]
*214 la_data_out[41]
*215 la_data_out[42]
*216 la_data_out[43]
*217 la_data_out[44]
*218 la_data_out[45]
*219 la_data_out[46]
*220 la_data_out[47]
*221 la_data_out[48]
*222 la_data_out[49]
*223 la_data_out[4]
*224 la_data_out[50]
*225 la_data_out[51]
*226 la_data_out[52]
*227 la_data_out[53]
*228 la_data_out[54]
*229 la_data_out[55]
*230 la_data_out[56]
*231 la_data_out[57]
*232 la_data_out[58]
*233 la_data_out[59]
*234 la_data_out[5]
*235 la_data_out[60]
*236 la_data_out[61]
*237 la_data_out[62]
*238 la_data_out[63]
*239 la_data_out[6]
*240 la_data_out[7]
*241 la_data_out[8]
*242 la_data_out[9]
*243 la_oenb[0]
*244 la_oenb[10]
*245 la_oenb[11]
*246 la_oenb[12]
*247 la_oenb[13]
*248 la_oenb[14]
*249 la_oenb[15]
*250 la_oenb[16]
*251 la_oenb[17]
*252 la_oenb[18]
*253 la_oenb[19]
*254 la_oenb[1]
*255 la_oenb[20]
*256 la_oenb[21]
*257 la_oenb[22]
*258 la_oenb[23]
*259 la_oenb[24]
*260 la_oenb[25]
*261 la_oenb[26]
*262 la_oenb[27]
*263 la_oenb[28]
*264 la_oenb[29]
*265 la_oenb[2]
*266 la_oenb[30]
*267 la_oenb[31]
*268 la_oenb[32]
*269 la_oenb[33]
*270 la_oenb[34]
*271 la_oenb[35]
*272 la_oenb[36]
*273 la_oenb[37]
*274 la_oenb[38]
*275 la_oenb[39]
*276 la_oenb[3]
*277 la_oenb[40]
*278 la_oenb[41]
*279 la_oenb[42]
*280 la_oenb[43]
*281 la_oenb[44]
*282 la_oenb[45]
*283 la_oenb[46]
*284 la_oenb[47]
*285 la_oenb[48]
*286 la_oenb[49]
*287 la_oenb[4]
*288 la_oenb[50]
*289 la_oenb[51]
*290 la_oenb[52]
*291 la_oenb[53]
*292 la_oenb[54]
*293 la_oenb[55]
*294 la_oenb[56]
*295 la_oenb[57]
*296 la_oenb[58]
*297 la_oenb[59]
*298 la_oenb[5]
*299 la_oenb[60]
*300 la_oenb[61]
*301 la_oenb[62]
*302 la_oenb[63]
*303 la_oenb[6]
*304 la_oenb[7]
*305 la_oenb[8]
*306 la_oenb[9]
*307 user_clock2
*308 user_irq[0]
*309 user_irq[1]
*310 user_irq[2]
*313 wb_clk_i
*314 wb_rst_i
*315 wbs_ack_o
*316 wbs_adr_i[0]
*317 wbs_adr_i[10]
*318 wbs_adr_i[11]
*319 wbs_adr_i[12]
*320 wbs_adr_i[13]
*321 wbs_adr_i[14]
*322 wbs_adr_i[15]
*323 wbs_adr_i[16]
*324 wbs_adr_i[17]
*325 wbs_adr_i[18]
*326 wbs_adr_i[19]
*327 wbs_adr_i[1]
*328 wbs_adr_i[20]
*329 wbs_adr_i[21]
*330 wbs_adr_i[22]
*331 wbs_adr_i[23]
*332 wbs_adr_i[24]
*333 wbs_adr_i[25]
*334 wbs_adr_i[26]
*335 wbs_adr_i[27]
*336 wbs_adr_i[28]
*337 wbs_adr_i[29]
*338 wbs_adr_i[2]
*339 wbs_adr_i[30]
*340 wbs_adr_i[31]
*341 wbs_adr_i[3]
*342 wbs_adr_i[4]
*343 wbs_adr_i[5]
*344 wbs_adr_i[6]
*345 wbs_adr_i[7]
*346 wbs_adr_i[8]
*347 wbs_adr_i[9]
*348 wbs_cyc_i
*349 wbs_dat_i[0]
*350 wbs_dat_i[10]
*351 wbs_dat_i[11]
*352 wbs_dat_i[12]
*353 wbs_dat_i[13]
*354 wbs_dat_i[14]
*355 wbs_dat_i[15]
*356 wbs_dat_i[16]
*357 wbs_dat_i[17]
*358 wbs_dat_i[18]
*359 wbs_dat_i[19]
*360 wbs_dat_i[1]
*361 wbs_dat_i[20]
*362 wbs_dat_i[21]
*363 wbs_dat_i[22]
*364 wbs_dat_i[23]
*365 wbs_dat_i[24]
*366 wbs_dat_i[25]
*367 wbs_dat_i[26]
*368 wbs_dat_i[27]
*369 wbs_dat_i[28]
*370 wbs_dat_i[29]
*371 wbs_dat_i[2]
*372 wbs_dat_i[30]
*373 wbs_dat_i[31]
*374 wbs_dat_i[3]
*375 wbs_dat_i[4]
*376 wbs_dat_i[5]
*377 wbs_dat_i[6]
*378 wbs_dat_i[7]
*379 wbs_dat_i[8]
*380 wbs_dat_i[9]
*381 wbs_dat_o[0]
*382 wbs_dat_o[10]
*383 wbs_dat_o[11]
*384 wbs_dat_o[12]
*385 wbs_dat_o[13]
*386 wbs_dat_o[14]
*387 wbs_dat_o[15]
*388 wbs_dat_o[16]
*389 wbs_dat_o[17]
*390 wbs_dat_o[18]
*391 wbs_dat_o[19]
*392 wbs_dat_o[1]
*393 wbs_dat_o[20]
*394 wbs_dat_o[21]
*395 wbs_dat_o[22]
*396 wbs_dat_o[23]
*397 wbs_dat_o[24]
*398 wbs_dat_o[25]
*399 wbs_dat_o[26]
*400 wbs_dat_o[27]
*401 wbs_dat_o[28]
*402 wbs_dat_o[29]
*403 wbs_dat_o[2]
*404 wbs_dat_o[30]
*405 wbs_dat_o[31]
*406 wbs_dat_o[3]
*407 wbs_dat_o[4]
*408 wbs_dat_o[5]
*409 wbs_dat_o[6]
*410 wbs_dat_o[7]
*411 wbs_dat_o[8]
*412 wbs_dat_o[9]
*413 wbs_sel_i[0]
*414 wbs_sel_i[1]
*415 wbs_sel_i[2]
*416 wbs_sel_i[3]
*417 wbs_stb_i
*418 wbs_we_i
*419 j1a

*PORTS
io_in[0] I
io_in[10] I
io_in[11] I
io_in[12] I
io_in[13] I
io_in[14] I
io_in[15] I
io_in[16] I
io_in[17] I
io_in[18] I
io_in[19] I
io_in[1] I
io_in[20] I
io_in[21] I
io_in[22] I
io_in[23] I
io_in[24] I
io_in[25] I
io_in[26] I
io_in[27] I
io_in[28] I
io_in[29] I
io_in[2] I
io_in[30] I
io_in[31] I
io_in[32] I
io_in[33] I
io_in[34] I
io_in[35] I
io_in[36] I
io_in[37] I
io_in[3] I
io_in[4] I
io_in[5] I
io_in[6] I
io_in[7] I
io_in[8] I
io_in[9] I
io_oeb[0] O
io_oeb[10] O
io_oeb[11] O
io_oeb[12] O
io_oeb[13] O
io_oeb[14] O
io_oeb[15] O
io_oeb[16] O
io_oeb[17] O
io_oeb[18] O
io_oeb[19] O
io_oeb[1] O
io_oeb[20] O
io_oeb[21] O
io_oeb[22] O
io_oeb[23] O
io_oeb[24] O
io_oeb[25] O
io_oeb[26] O
io_oeb[27] O
io_oeb[28] O
io_oeb[29] O
io_oeb[2] O
io_oeb[30] O
io_oeb[31] O
io_oeb[32] O
io_oeb[33] O
io_oeb[34] O
io_oeb[35] O
io_oeb[36] O
io_oeb[37] O
io_oeb[3] O
io_oeb[4] O
io_oeb[5] O
io_oeb[6] O
io_oeb[7] O
io_oeb[8] O
io_oeb[9] O
io_out[0] O
io_out[10] O
io_out[11] O
io_out[12] O
io_out[13] O
io_out[14] O
io_out[15] O
io_out[16] O
io_out[17] O
io_out[18] O
io_out[19] O
io_out[1] O
io_out[20] O
io_out[21] O
io_out[22] O
io_out[23] O
io_out[24] O
io_out[25] O
io_out[26] O
io_out[27] O
io_out[28] O
io_out[29] O
io_out[2] O
io_out[30] O
io_out[31] O
io_out[32] O
io_out[33] O
io_out[34] O
io_out[35] O
io_out[36] O
io_out[37] O
io_out[3] O
io_out[4] O
io_out[5] O
io_out[6] O
io_out[7] O
io_out[8] O
io_out[9] O
la_data_in[0] I
la_data_in[10] I
la_data_in[11] I
la_data_in[12] I
la_data_in[13] I
la_data_in[14] I
la_data_in[15] I
la_data_in[16] I
la_data_in[17] I
la_data_in[18] I
la_data_in[19] I
la_data_in[1] I
la_data_in[20] I
la_data_in[21] I
la_data_in[22] I
la_data_in[23] I
la_data_in[24] I
la_data_in[25] I
la_data_in[26] I
la_data_in[27] I
la_data_in[28] I
la_data_in[29] I
la_data_in[2] I
la_data_in[30] I
la_data_in[31] I
la_data_in[32] I
la_data_in[33] I
la_data_in[34] I
la_data_in[35] I
la_data_in[36] I
la_data_in[37] I
la_data_in[38] I
la_data_in[39] I
la_data_in[3] I
la_data_in[40] I
la_data_in[41] I
la_data_in[42] I
la_data_in[43] I
la_data_in[44] I
la_data_in[45] I
la_data_in[46] I
la_data_in[47] I
la_data_in[48] I
la_data_in[49] I
la_data_in[4] I
la_data_in[50] I
la_data_in[51] I
la_data_in[52] I
la_data_in[53] I
la_data_in[54] I
la_data_in[55] I
la_data_in[56] I
la_data_in[57] I
la_data_in[58] I
la_data_in[59] I
la_data_in[5] I
la_data_in[60] I
la_data_in[61] I
la_data_in[62] I
la_data_in[63] I
la_data_in[6] I
la_data_in[7] I
la_data_in[8] I
la_data_in[9] I
la_data_out[0] O
la_data_out[10] O
la_data_out[11] O
la_data_out[12] O
la_data_out[13] O
la_data_out[14] O
la_data_out[15] O
la_data_out[16] O
la_data_out[17] O
la_data_out[18] O
la_data_out[19] O
la_data_out[1] O
la_data_out[20] O
la_data_out[21] O
la_data_out[22] O
la_data_out[23] O
la_data_out[24] O
la_data_out[25] O
la_data_out[26] O
la_data_out[27] O
la_data_out[28] O
la_data_out[29] O
la_data_out[2] O
la_data_out[30] O
la_data_out[31] O
la_data_out[32] O
la_data_out[33] O
la_data_out[34] O
la_data_out[35] O
la_data_out[36] O
la_data_out[37] O
la_data_out[38] O
la_data_out[39] O
la_data_out[3] O
la_data_out[40] O
la_data_out[41] O
la_data_out[42] O
la_data_out[43] O
la_data_out[44] O
la_data_out[45] O
la_data_out[46] O
la_data_out[47] O
la_data_out[48] O
la_data_out[49] O
la_data_out[4] O
la_data_out[50] O
la_data_out[51] O
la_data_out[52] O
la_data_out[53] O
la_data_out[54] O
la_data_out[55] O
la_data_out[56] O
la_data_out[57] O
la_data_out[58] O
la_data_out[59] O
la_data_out[5] O
la_data_out[60] O
la_data_out[61] O
la_data_out[62] O
la_data_out[63] O
la_data_out[6] O
la_data_out[7] O
la_data_out[8] O
la_data_out[9] O
la_oenb[0] I
la_oenb[10] I
la_oenb[11] I
la_oenb[12] I
la_oenb[13] I
la_oenb[14] I
la_oenb[15] I
la_oenb[16] I
la_oenb[17] I
la_oenb[18] I
la_oenb[19] I
la_oenb[1] I
la_oenb[20] I
la_oenb[21] I
la_oenb[22] I
la_oenb[23] I
la_oenb[24] I
la_oenb[25] I
la_oenb[26] I
la_oenb[27] I
la_oenb[28] I
la_oenb[29] I
la_oenb[2] I
la_oenb[30] I
la_oenb[31] I
la_oenb[32] I
la_oenb[33] I
la_oenb[34] I
la_oenb[35] I
la_oenb[36] I
la_oenb[37] I
la_oenb[38] I
la_oenb[39] I
la_oenb[3] I
la_oenb[40] I
la_oenb[41] I
la_oenb[42] I
la_oenb[43] I
la_oenb[44] I
la_oenb[45] I
la_oenb[46] I
la_oenb[47] I
la_oenb[48] I
la_oenb[49] I
la_oenb[4] I
la_oenb[50] I
la_oenb[51] I
la_oenb[52] I
la_oenb[53] I
la_oenb[54] I
la_oenb[55] I
la_oenb[56] I
la_oenb[57] I
la_oenb[58] I
la_oenb[59] I
la_oenb[5] I
la_oenb[60] I
la_oenb[61] I
la_oenb[62] I
la_oenb[63] I
la_oenb[6] I
la_oenb[7] I
la_oenb[8] I
la_oenb[9] I
user_clock2 I
user_irq[0] O
user_irq[1] O
user_irq[2] O
wb_clk_i I
wb_rst_i I
wbs_ack_o O
wbs_adr_i[0] I
wbs_adr_i[10] I
wbs_adr_i[11] I
wbs_adr_i[12] I
wbs_adr_i[13] I
wbs_adr_i[14] I
wbs_adr_i[15] I
wbs_adr_i[16] I
wbs_adr_i[17] I
wbs_adr_i[18] I
wbs_adr_i[19] I
wbs_adr_i[1] I
wbs_adr_i[20] I
wbs_adr_i[21] I
wbs_adr_i[22] I
wbs_adr_i[23] I
wbs_adr_i[24] I
wbs_adr_i[25] I
wbs_adr_i[26] I
wbs_adr_i[27] I
wbs_adr_i[28] I
wbs_adr_i[29] I
wbs_adr_i[2] I
wbs_adr_i[30] I
wbs_adr_i[31] I
wbs_adr_i[3] I
wbs_adr_i[4] I
wbs_adr_i[5] I
wbs_adr_i[6] I
wbs_adr_i[7] I
wbs_adr_i[8] I
wbs_adr_i[9] I
wbs_cyc_i I
wbs_dat_i[0] I
wbs_dat_i[10] I
wbs_dat_i[11] I
wbs_dat_i[12] I
wbs_dat_i[13] I
wbs_dat_i[14] I
wbs_dat_i[15] I
wbs_dat_i[16] I
wbs_dat_i[17] I
wbs_dat_i[18] I
wbs_dat_i[19] I
wbs_dat_i[1] I
wbs_dat_i[20] I
wbs_dat_i[21] I
wbs_dat_i[22] I
wbs_dat_i[23] I
wbs_dat_i[24] I
wbs_dat_i[25] I
wbs_dat_i[26] I
wbs_dat_i[27] I
wbs_dat_i[28] I
wbs_dat_i[29] I
wbs_dat_i[2] I
wbs_dat_i[30] I
wbs_dat_i[31] I
wbs_dat_i[3] I
wbs_dat_i[4] I
wbs_dat_i[5] I
wbs_dat_i[6] I
wbs_dat_i[7] I
wbs_dat_i[8] I
wbs_dat_i[9] I
wbs_dat_o[0] O
wbs_dat_o[10] O
wbs_dat_o[11] O
wbs_dat_o[12] O
wbs_dat_o[13] O
wbs_dat_o[14] O
wbs_dat_o[15] O
wbs_dat_o[16] O
wbs_dat_o[17] O
wbs_dat_o[18] O
wbs_dat_o[19] O
wbs_dat_o[1] O
wbs_dat_o[20] O
wbs_dat_o[21] O
wbs_dat_o[22] O
wbs_dat_o[23] O
wbs_dat_o[24] O
wbs_dat_o[25] O
wbs_dat_o[26] O
wbs_dat_o[27] O
wbs_dat_o[28] O
wbs_dat_o[29] O
wbs_dat_o[2] O
wbs_dat_o[30] O
wbs_dat_o[31] O
wbs_dat_o[3] O
wbs_dat_o[4] O
wbs_dat_o[5] O
wbs_dat_o[6] O
wbs_dat_o[7] O
wbs_dat_o[8] O
wbs_dat_o[9] O
wbs_sel_i[0] I
wbs_sel_i[1] I
wbs_sel_i[2] I
wbs_sel_i[3] I
wbs_stb_i I
wbs_we_i I

*D_NET *15 0.581532
*CONN
*P io_in[22] I
*I *419:tck I *D J1Asic
*CAP
1 io_in[22] 0.000960897
2 *419:tck 0.000656683
3 *15:25 0.00076679
4 *15:23 0.000110107
5 *15:21 0.00199025
6 *15:19 0.00491125
7 *15:13 0.0446494
8 *15:11 0.0426893
9 *15:19 *51:23 0.000449523
10 *15:21 *51:13 0.206975
11 *15:21 *90:10 0.206549
12 *15:25 *25:21 0.00878224
13 *15:25 *53:9 0.000143649
14 *15:25 *54:15 0.00285574
15 *15:25 *63:9 0.0340626
16 *15:25 *313:17 0.0249799
*RES
1 io_in[22] *15:11 15.498 
2 *15:11 *15:13 302.141 
3 *15:13 *15:19 19.6773 
4 *15:19 *15:21 499.507 
5 *15:21 *15:23 4.5 
6 *15:23 *15:25 81.852 
7 *15:25 *419:tck 7.73 
*END

*D_NET *16 0.321597
*CONN
*P io_in[23] I
*I *419:tms I *D J1Asic
*CAP
1 io_in[23] 0.00102104
2 *419:tms 0.000295563
3 *16:17 0.000608748
4 *16:15 0.000313184
5 *16:13 0.109689
6 *16:11 0.109689
7 *16:9 0.00674848
8 *16:7 0.00776953
9 *16:9 io_oeb[22] 0.0108865
10 *16:17 *105:14 0.0485402
11 *16:17 *107:12 0.0260352
*RES
1 io_in[23] *16:7 11.53 
2 *16:7 *16:9 60.572 
3 *16:9 *16:11 4.5 
4 *16:11 *16:13 795.34 
5 *16:13 *16:15 4.5 
6 *16:15 *16:17 124.26 
7 *16:17 *419:tms 14.792 
*END

*D_NET *17 0.532106
*CONN
*P io_in[24] I
*I *419:tdi I *D J1Asic
*CAP
1 io_in[24] 0.00276623
2 *419:tdi 0.000106649
3 *17:13 0.0237935
4 *17:11 0.0236869
5 *17:9 0.0900503
6 *17:7 0.0928165
7 *17:9 *24:9 0.0429032
8 *17:9 *54:19 0.120076
9 *17:13 *58:12 0.12909
10 *17:13 *90:6 0.00681706
*RES
1 io_in[24] *17:7 23.386 
2 *17:7 *17:9 792.417 
3 *17:9 *17:11 4.5 
4 *17:11 *17:13 106.45 
5 *17:13 *419:tdi 13.9967 
*END

*D_NET *18 0.682533
*CONN
*P io_in[25] I
*I *419:rx I *D J1Asic
*CAP
1 io_in[25] 0.00214711
2 *419:rx 5.17842e-05
3 *18:13 0.0207696
4 *18:11 0.0207178
5 *18:9 0.062703
6 *18:7 0.0648501
7 *18:9 io_oeb[23] 0.00849664
8 *18:9 *22:9 0.0483986
9 *18:9 *58:16 0.0240598
10 *18:9 *60:19 0.194557
11 *18:13 *27:13 0.0145516
12 *18:13 *28:13 0.0177672
13 *18:13 *51:9 0.0073423
14 *18:13 *57:9 0.0132167
15 *18:13 *58:12 0.169283
16 *18:13 *60:15 0
17 *18:13 *65:9 0.0122365
18 *18:13 *89:12 0.0013843
*RES
1 io_in[25] *18:7 18.826 
2 *18:7 *18:9 735.449 
3 *18:9 *18:11 4.5 
4 *18:11 *18:13 139.668 
5 *18:13 *419:rx 13.7253 
*END

*D_NET *19 0.204724
*CONN
*P io_in[26] I
*I *419:extInt[0] I *D J1Asic
*CAP
1 io_in[26] 0.0023952
2 *419:extInt[0] 0.0877371
3 *19:7 0.0901323
4 *419:extInt[0] io_oeb[23] 0
5 *419:extInt[0] *419:extInt[1] 0.0170991
6 *419:extInt[0] *22:9 0
7 *419:extInt[0] *27:9 0
8 *419:extInt[0] *30:9 0.00736001
*RES
1 io_in[26] *19:7 20.346 
2 *19:7 *419:extInt[0] 676.894 
*END

*D_NET *20 0.255223
*CONN
*P io_in[27] I
*I *419:extInt[1] I *D J1Asic
*CAP
1 io_in[27] 0.00301727
2 *419:extInt[1] 0.0556329
3 *20:7 0.0586501
4 *419:extInt[1] *30:9 0.0403628
5 *419:extInt[1] *59:16 0.0192208
6 *419:extInt[1] *102:13 0.0612397
7 *419:extInt[0] *419:extInt[1] 0.0170991
*RES
1 io_in[27] *20:7 21.258 
2 *20:7 *419:extInt[1] 619.438 
*END

*D_NET *21 0.51726
*CONN
*P io_in[28] I
*I *419:extInt[2] I *D J1Asic
*CAP
1 io_in[28] 0.00179545
2 *419:extInt[2] 0.000181497
3 *21:13 0.0309934
4 *21:11 0.0308119
5 *21:9 0.0216828
6 *21:7 0.0234783
7 *21:9 *26:9 0.0490299
8 *21:9 *28:9 2.89664e-05
9 *21:9 *57:13 0.0412607
10 *21:9 *63:13 0.14295
11 *21:9 *106:16 0.0333198
12 *21:13 *22:13 0.106314
13 *21:13 *51:9 0.0350328
14 *21:13 *57:9 0.000380626
15 *21:13 *62:9 0
16 *21:13 *104:9 0
*RES
1 io_in[28] *21:7 14.57 
2 *21:7 *21:9 563.996 
3 *21:9 *21:11 4.5 
4 *21:11 *21:13 429.02 
5 *21:13 *419:extInt[2] 5.602 
*END

*D_NET *22 0.46499
*CONN
*P io_in[29] I
*I *419:boardClkLocked I *D J1Asic
*CAP
1 io_in[29] 0.00216627
2 *419:boardClkLocked 0.000216819
3 *22:13 0.00114048
4 *22:11 0.000923659
5 *22:9 0.0409397
6 *22:7 0.043106
7 *22:9 io_oeb[23] 0.0877424
8 *22:9 *27:9 0.0539419
9 *22:9 *313:15 1.41828e-05
10 *22:13 *51:9 0.054981
11 *22:13 *57:9 0.000911784
12 *22:13 *65:9 0.0241931
13 *419:extInt[0] *22:9 0
14 *18:9 *22:9 0.0483986
15 *21:13 *22:13 0.106314
*RES
1 io_in[29] *22:7 18.826 
2 *22:7 *22:9 506.388 
3 *22:9 *22:11 4.5 
4 *22:11 *22:13 256.044 
5 *22:13 *419:boardClkLocked 5.45 
*END

*D_NET *24 0.493877
*CONN
*P io_in[30] I
*I *419:pmodA_read[0] I *D J1Asic
*CAP
1 io_in[30] 0.00288187
2 *419:pmodA_read[0] 0
3 *24:13 0.00257183
4 *24:11 0.00257183
5 *24:9 0.035581
6 *24:7 0.0384628
7 *24:9 *62:13 0.165602
8 *24:9 *314:7 0
9 *24:13 *419:pmodA_read[5] 0.000247042
10 *24:13 *26:13 0.000404982
11 *24:13 *51:9 0
12 *24:13 *64:6 0.0334664
13 *24:13 *66:8 0.000571712
14 *24:13 *66:10 0.076635
15 *24:13 *68:15 0.000214579
16 *24:13 *90:6 0.0878857
17 *24:13 *105:12 0.00313408
18 *24:13 *313:15 0.000434556
19 *24:13 *314:9 0.000309052
20 *17:9 *24:9 0.0429032
*RES
1 io_in[30] *24:7 23.386 
2 *24:7 *24:9 447.412 
3 *24:9 *24:11 4.5 
4 *24:11 *24:13 383.724 
5 *24:13 *419:pmodA_read[0] 4.5 
*END

*D_NET *25 0.44992
*CONN
*P io_in[31] I
*I *419:pmodA_read[1] I *D J1Asic
*CAP
1 io_in[31] 0.000717091
2 *419:pmodA_read[1] 0.00047744
3 *25:21 0.00140655
4 *25:19 0.00240503
5 *25:13 0.0113615
6 *25:11 0.00988556
7 *25:9 0.0535493
8 *25:7 0.0542664
9 *419:pmodA_read[1] *101:7 7.17372e-05
10 *25:9 io_out[37] 0.000821792
11 *25:9 *68:21 0.00212756
12 *25:9 *100:27 0.0126802
13 *25:9 *101:21 0.0352656
14 *25:9 *103:21 0.00579651
15 *25:9 *105:18 0.00436171
16 *25:13 *31:13 0.000227266
17 *25:13 *59:12 0.0926635
18 *25:13 *67:12 0.000171708
19 *25:13 *68:17 0.0001664
20 *25:13 *89:14 0.0306761
21 *25:13 *101:19 0.000473553
22 *25:21 *53:9 0.0748942
23 *25:21 *54:15 0.00455315
24 *25:21 *63:9 0.0362869
25 *25:21 *100:15 0.00260534
26 *25:21 *101:9 0.00119674
27 *25:21 *103:9 0.00202919
28 *15:25 *25:21 0.00878224
*RES
1 io_in[31] *25:7 9.706 
2 *25:7 *25:9 386.56 
3 *25:9 *25:11 4.5 
4 *25:11 *25:13 81.1864 
5 *25:13 *25:19 16.1196 
6 *25:19 *25:21 198.132 
7 *25:21 *419:pmodA_read[1] 7.578 
*END

*D_NET *26 0.42501
*CONN
*P io_in[32] I
*I *419:pmodA_read[2] I *D J1Asic
*CAP
1 io_in[32] 0.00157742
2 *419:pmodA_read[2] 0
3 *26:13 0.00201073
4 *26:11 0.00201073
5 *26:9 0.0132511
6 *26:7 0.0148285
7 *26:9 *28:9 0.0426205
8 *26:9 *106:16 0.0333142
9 *26:13 *419:pmodA_read[4] 0.00373209
10 *26:13 *28:13 0.0707049
11 *26:13 *51:9 0.00017191
12 *26:13 *57:9 3.22131e-05
13 *26:13 *58:12 0.020385
14 *26:13 *64:6 0.158407
15 *26:13 *89:12 0.012529
16 *26:13 *106:12 0
17 *21:9 *26:9 0.0490299
18 *24:13 *26:13 0.000404982
*RES
1 io_in[32] *26:7 14.874 
2 *26:7 *26:9 332.956 
3 *26:9 *26:11 4.5 
4 *26:11 *26:13 385.852 
5 *26:13 *419:pmodA_read[2] 4.5 
*END

*D_NET *27 0.44452
*CONN
*P io_in[33] I
*I *419:pmodA_read[3] I *D J1Asic
*CAP
1 io_in[33] 0.00231118
2 *419:pmodA_read[3] 5.85907e-05
3 *27:13 0.000798078
4 *27:11 0.000739487
5 *27:9 0.0230504
6 *27:7 0.0253616
7 *419:pmodA_read[3] *103:7 7.00774e-06
8 *419:pmodA_read[3] *104:7 7.00774e-06
9 *27:9 *58:16 0.0130978
10 *27:9 *313:15 4.48124e-05
11 *27:13 *419:pmodA_read[4] 0.00145002
12 *27:13 *28:13 0.152877
13 *27:13 *51:9 0.000259587
14 *27:13 *57:9 0.153579
15 *27:13 *58:12 0.00162528
16 *27:13 *65:9 0.000758968
17 *419:extInt[0] *27:9 0
18 *18:13 *27:13 0.0145516
19 *22:9 *27:9 0.0539419
*RES
1 io_in[33] *27:7 19.13 
2 *27:7 *27:9 275.956 
3 *27:9 *27:11 4.5 
4 *27:11 *27:13 375.212 
5 *27:13 *419:pmodA_read[3] 4.842 
*END

*D_NET *28 0.346049
*CONN
*P io_in[34] I
*I *419:pmodA_read[4] I *D J1Asic
*CAP
1 io_in[34] 0.00164656
2 *419:pmodA_read[4] 0.00019969
3 *28:13 0.00181233
4 *28:11 0.00161264
5 *28:9 0.0182654
6 *28:7 0.019912
7 *419:pmodA_read[4] *51:9 0.00015093
8 *28:9 *64:10 0
9 *28:13 *57:9 0.00073169
10 *28:13 *89:12 0.0125368
11 *18:13 *28:13 0.0177672
12 *21:9 *28:9 2.89664e-05
13 *26:9 *28:9 0.0426205
14 *26:13 *419:pmodA_read[4] 0.00373209
15 *26:13 *28:13 0.0707049
16 *27:13 *419:pmodA_read[4] 0.00145002
17 *27:13 *28:13 0.152877
*RES
1 io_in[34] *28:7 15.178 
2 *28:7 *28:9 218.348 
3 *28:9 *28:11 4.5 
4 *28:11 *28:13 371.944 
5 *28:13 *419:pmodA_read[4] 13.848 
*END

*D_NET *29 0.337671
*CONN
*P io_in[35] I
*I *419:pmodA_read[5] I *D J1Asic
*CAP
1 io_in[35] 0.00307743
2 *419:pmodA_read[5] 0.00053013
3 *29:13 0.0256696
4 *29:11 0.0251395
5 *29:9 0.00503967
6 *29:7 0.0081171
7 *419:pmodA_read[5] *419:pmodA_read[6] 0
8 *419:pmodA_read[5] *66:10 0.000239279
9 *29:9 *54:19 0.00578075
10 *29:9 *62:13 0.0636956
11 *29:9 *103:13 0.0361756
12 *29:13 *30:13 0.151104
13 *29:13 *59:12 0.0128553
14 *29:13 *107:12 0
15 *24:13 *419:pmodA_read[5] 0.000247042
*RES
1 io_in[35] *29:7 23.69 
2 *29:7 *29:9 157.396 
3 *29:9 *29:11 4.5 
4 *29:11 *29:13 362.748 
5 *29:13 *419:pmodA_read[5] 16.844 
*END

*D_NET *30 0.385125
*CONN
*P io_in[36] I
*I *419:pmodA_read[6] I *D J1Asic
*CAP
1 io_in[36] 0.00267669
2 *419:pmodA_read[6] 0.000504928
3 *30:13 0.0012289
4 *30:11 0.000723968
5 *30:9 0.00408429
6 *30:7 0.00676097
7 *30:9 *59:16 0.00478092
8 *30:13 *59:12 0.0135091
9 *30:13 *67:12 0.000723118
10 *30:13 *68:17 0.151305
11 *30:13 *107:12 0
12 *419:extInt[0] *30:9 0.00736001
13 *419:extInt[1] *30:9 0.0403628
14 *419:pmodA_read[5] *419:pmodA_read[6] 0
15 *29:13 *30:13 0.151104
*RES
1 io_in[36] *30:7 21.106 
2 *30:7 *30:9 99.788 
3 *30:9 *30:11 4.5 
4 *30:11 *30:13 366.852 
5 *30:13 *419:pmodA_read[6] 16.312 
*END

*D_NET *31 0.254578
*CONN
*P io_in[37] I
*I *419:pmodA_read[7] I *D J1Asic
*CAP
1 io_in[37] 0.00119033
2 *419:pmodA_read[7] 0.000560802
3 *31:13 0.025926
4 *31:11 0.0293797
5 *31:7 0.00520484
6 *419:pmodA_read[7] *106:10 1.55288e-05
7 *31:11 *104:13 0.015897
8 *31:13 *59:12 0.0136387
9 *31:13 *67:12 0.157056
10 *31:13 *101:19 0.00548171
11 *25:13 *31:13 0.000227266
*RES
1 io_in[37] *31:7 12.138 
2 *31:7 *31:11 46.376 
3 *31:11 *31:13 377.644 
4 *31:13 *419:pmodA_read[7] 16.768 
*END

*D_NET *51 0.634806
*CONN
*P io_oeb[20] O
*I *419:io_oeb_low[0] O *D J1Asic
*CAP
1 io_oeb[20] 0.00102104
2 *419:io_oeb_low[0] 0.000124948
3 *51:137 0.0124698
4 *51:135 0.0149872
5 *51:123 0.00626254
6 *51:115 0.00525298
7 *51:101 0.00986181
8 *51:99 0.00733295
9 *51:97 0.00567589
10 *51:87 0.0104501
11 *51:77 0.0123266
12 *51:75 0.00755242
13 *51:73 0.00408045
14 *51:57 0.00776964
15 *51:45 0.00719372
16 *51:23 0.00846856
17 *51:13 0.040123
18 *51:11 0.035159
19 *51:9 0.00804274
20 *51:7 0.00816769
21 *51:9 *65:9 0.103913
22 *51:13 *90:10 0.000200465
23 *51:45 *56:9 0
24 *51:57 *89:36 0.00698763
25 *51:73 *90:30 0.000970903
26 *51:77 *89:56 0
27 *51:135 io_oeb[21] 0.00504754
28 *419:pmodA_read[4] *51:9 0.00015093
29 *15:19 *51:23 0.000449523
30 *15:21 *51:13 0.206975
31 *18:13 *51:9 0.0073423
32 *21:13 *51:9 0.0350328
33 *22:13 *51:9 0.054981
34 *24:13 *51:9 0
35 *26:13 *51:9 0.00017191
36 *27:13 *51:9 0.000259587
*RES
1 *419:io_oeb_low[0] *51:7 5.298 
2 *51:7 *51:9 329.156 
3 *51:9 *51:11 4.5 
4 *51:11 *51:13 498.052 
5 *51:13 *51:23 46.3278 
6 *51:23 *51:45 46.516 
7 *51:45 *51:57 48.08 
8 *51:57 *51:73 46.576 
9 *51:73 *51:75 4.5 
10 *51:75 *51:77 51.604 
11 *51:77 *51:87 45.572 
12 *51:87 *51:97 47.988 
13 *51:97 *51:99 4.5 
14 *51:99 *51:101 50.236 
15 *51:101 *51:115 35.252 
16 *51:115 *51:123 27.392 
17 *51:123 *51:135 49.144 
18 *51:135 *51:137 81.548 
19 *51:137 io_oeb[20] 11.53 
*END

*D_NET *52 0.238091
*CONN
*P io_oeb[21] O
*I *419:io_oeb_low[1] O *D J1Asic
*CAP
1 io_oeb[21] 0.036228
2 *419:io_oeb_low[1] 0.00053088
3 *52:11 0.036228
4 *52:9 0.0209184
5 *52:7 0.0214493
6 io_oeb[21] *89:66 0.00424378
7 *52:9 *55:9 0.00768794
8 *52:9 *56:9 0.105757
9 *51:135 io_oeb[21] 0.00504754
*RES
1 *419:io_oeb_low[1] *52:7 8.034 
2 *52:7 *52:9 292.372 
3 *52:9 *52:11 4.5 
4 *52:11 io_oeb[21] 268.926 
*END

*D_NET *53 0.455927
*CONN
*P io_oeb[22] O
*I *419:io_oeb_high[0] O *D J1Asic
*CAP
1 io_oeb[22] 0.00278415
2 *419:io_oeb_high[0] 0.000573511
3 *53:13 0.113523
4 *53:11 0.110739
5 *53:9 0.000323429
6 *53:7 0.00089694
7 *53:9 *54:15 0.00749259
8 *53:9 *100:15 0.00221336
9 *53:9 *103:9 0.103309
10 *53:9 *313:17 0.028148
11 *15:25 *53:9 0.000143649
12 *16:9 io_oeb[22] 0.0108865
13 *25:21 *53:9 0.0748942
*RES
1 *419:io_oeb_high[0] *53:7 7.426 
2 *53:7 *53:9 248.292 
3 *53:9 *53:11 4.5 
4 *53:11 *53:13 800.356 
5 *53:13 io_oeb[22] 41.946 
*END

*D_NET *54 0.68666
*CONN
*P io_oeb[23] O
*I *419:io_oeb_high[1] O *D J1Asic
*CAP
1 io_oeb[23] 0.0594431
2 *419:io_oeb_high[1] 0.000541423
3 *54:25 0.0601932
4 *54:19 0.0219027
5 *54:17 0.0211526
6 *54:15 0.0179331
7 *54:13 0.0184745
8 io_oeb[23] *58:16 0.00422157
9 io_oeb[23] *60:19 0.00861157
10 *54:15 *63:9 0.0191687
11 *54:15 *100:15 0.152229
12 *54:15 *101:9 0.0158648
13 *54:15 *102:9 0.0128153
14 *54:15 *103:9 0.0135412
15 *54:15 *313:17 0.00666317
16 *54:19 *62:13 0.0137535
17 *54:19 *103:13 0.00315336
18 *419:extInt[0] io_oeb[23] 0
19 *15:25 *54:15 0.00285574
20 *17:9 *54:19 0.120076
21 *18:9 io_oeb[23] 0.00849664
22 *22:9 io_oeb[23] 0.0877424
23 *25:21 *54:15 0.00455315
24 *29:9 *54:19 0.00578075
25 *53:9 *54:15 0.00749259
*RES
1 *419:io_oeb_high[1] *54:13 16.2061 
2 *54:13 *54:15 125.477 
3 *54:15 *54:17 4.5 
4 *54:17 *54:19 291.468 
5 *54:19 *54:25 13.636 
6 *54:25 io_oeb[23] 515.47 
*END

*D_NET *55 0.348995
*CONN
*P io_oeb[24] O
*I *419:io_oeb_high[2] O *D J1Asic
*CAP
1 io_oeb[24] 0.000717285
2 *419:io_oeb_high[2] 0.000474332
3 *55:13 0.0225975
4 *55:11 0.0218802
5 *55:9 0.0398624
6 *55:7 0.0403368
7 *55:9 *56:9 0.18377
8 *55:13 *56:13 0.0316683
9 *52:9 *55:9 0.00768794
*RES
1 *419:io_oeb_high[2] *55:7 7.73 
2 *55:7 *55:9 518.7 
3 *55:9 *55:11 4.5 
4 *55:11 *55:13 219.412 
5 *55:13 io_oeb[24] 9.706 
*END

*D_NET *56 0.379049
*CONN
*P io_oeb[25] O
*I *419:io_oeb_high[3] O *D J1Asic
*CAP
1 io_oeb[25] 0.000772487
2 *419:io_oeb_high[3] 0.000509023
3 *56:13 0.0142479
4 *56:11 0.0134754
5 *56:9 0.0141698
6 *56:7 0.0146788
7 *51:45 *56:9 0
8 *52:9 *56:9 0.105757
9 *55:9 *56:9 0.18377
10 *55:13 *56:13 0.0316683
*RES
1 *419:io_oeb_high[3] *56:7 7.882 
2 *56:7 *56:9 443.612 
3 *56:9 *56:11 4.5 
4 *56:11 *56:13 161.804 
5 *56:13 io_oeb[25] 10.01 
*END

*D_NET *57 0.619693
*CONN
*P io_oeb[26] O
*I *419:io_oeb_high[4] O *D J1Asic
*CAP
1 io_oeb[26] 0.00144635
2 *419:io_oeb_high[4] 9.99122e-05
3 *57:13 0.0560828
4 *57:11 0.0546364
5 *57:9 0.00115496
6 *57:7 0.00125487
7 *57:9 *58:12 0.00126879
8 *57:9 *65:9 0.150931
9 *57:13 *63:13 0.142705
10 *18:13 *57:9 0.0132167
11 *21:9 *57:13 0.0412607
12 *21:13 *57:9 0.000380626
13 *22:13 *57:9 0.000911784
14 *26:13 *57:9 3.22131e-05
15 *27:13 *57:9 0.153579
16 *28:13 *57:9 0.00073169
*RES
1 *419:io_oeb_high[4] *57:7 4.994 
2 *57:7 *57:9 374.604 
3 *57:9 *57:11 4.5 
4 *57:11 *57:13 639.996 
5 *57:13 io_oeb[26] 14.266 
*END

*D_NET *58 0.734844
*CONN
*P io_oeb[27] O
*I *419:io_oeb_high[5] O *D J1Asic
*CAP
1 io_oeb[27] 0.00224384
2 *419:io_oeb_high[5] 2.70035e-05
3 *58:16 0.0392802
4 *58:14 0.0370364
5 *58:12 0.0268899
6 *58:10 0.0269169
7 *58:12 *60:15 0
8 *58:12 *64:6 0.0151252
9 *58:12 *65:9 0.00127902
10 *58:12 *90:6 0.00198484
11 *58:16 *60:19 0.194458
12 *58:16 *100:19 0.0265714
13 io_oeb[23] *58:16 0.00422157
14 *17:13 *58:12 0.12909
15 *18:9 *58:16 0.0240598
16 *18:13 *58:12 0.169283
17 *26:13 *58:12 0.020385
18 *27:9 *58:16 0.0130978
19 *27:13 *58:12 0.00162528
20 *57:9 *58:12 0.00126879
*RES
1 *419:io_oeb_high[5] *58:10 13.633 
2 *58:10 *58:12 197.959 
3 *58:12 *58:14 4.5 
4 *58:14 *58:16 581.989 
5 *58:16 io_oeb[27] 19.13 
*END

*D_NET *59 0.421835
*CONN
*P io_oeb[28] O
*I *419:io_oeb_high[6] O *D J1Asic
*CAP
1 io_oeb[28] 0.0025258
2 *419:io_oeb_high[6] 0.000581482
3 *59:16 0.0745078
4 *59:14 0.071982
5 *59:12 0.0261557
6 *59:10 0.0267372
7 *59:12 *67:12 0.018266
8 *59:12 *68:17 0.0174841
9 *59:12 *89:14 0.0170401
10 *59:16 *102:13 0.00988692
11 *419:extInt[1] *59:16 0.0192208
12 *25:13 *59:12 0.0926635
13 *29:13 *59:12 0.0128553
14 *30:9 *59:16 0.00478092
15 *30:13 *59:12 0.0135091
16 *31:13 *59:12 0.0136387
*RES
1 *419:io_oeb_high[6] *59:10 16.5753 
2 *59:10 *59:12 141.386 
3 *59:12 *59:14 4.5 
4 *59:14 *59:16 520.869 
5 *59:16 io_oeb[28] 21.106 
*END

*D_NET *60 0.656412
*CONN
*P io_oeb[29] O
*I *419:io_oeb_high[7] O *D J1Asic
*CAP
1 io_oeb[29] 0.00220757
2 *419:io_oeb_high[7] 0.000358439
3 *60:19 0.0037383
4 *60:17 0.00153073
5 *60:15 0.0268186
6 *60:13 0.027177
7 *60:15 *100:15 0.19655
8 *60:19 *100:19 0.000404028
9 io_oeb[23] *60:19 0.00861157
10 *18:9 *60:19 0.194557
11 *18:13 *60:15 0
12 *58:12 *60:15 0