*SPEF "ieee 1481-1999"
*DESIGN "user_project_wrapper"
*DATE "11:11:11 Fri 11 11, 1111"
*VENDOR "OpenRCX"
*PROGRAM "Parallel Extraction"
*VERSION "1.0"
*DESIGN_FLOW "NAME_SCOPE LOCAL" "PIN_CAP NONE"
*DIVIDER /
*DELIMITER :
*BUS_DELIMITER []
*T_UNIT 1 NS
*C_UNIT 1 PF
*R_UNIT 1 OHM
*L_UNIT 1 HENRY

*NAME_MAP
*1 io_in[0]
*2 io_in[10]
*3 io_in[11]
*4 io_in[12]
*5 io_in[13]
*6 io_in[14]
*7 io_in[15]
*8 io_in[16]
*9 io_in[17]
*10 io_in[18]
*11 io_in[19]
*12 io_in[1]
*13 io_in[20]
*14 io_in[21]
*15 io_in[22]
*16 io_in[23]
*17 io_in[24]
*18 io_in[25]
*19 io_in[26]
*20 io_in[27]
*21 io_in[28]
*22 io_in[29]
*23 io_in[2]
*24 io_in[30]
*25 io_in[31]
*26 io_in[32]
*27 io_in[33]
*28 io_in[34]
*29 io_in[35]
*30 io_in[36]
*31 io_in[37]
*32 io_in[3]
*33 io_in[4]
*34 io_in[5]
*35 io_in[6]
*36 io_in[7]
*37 io_in[8]
*38 io_in[9]
*39 io_oeb[0]
*40 io_oeb[10]
*41 io_oeb[11]
*42 io_oeb[12]
*43 io_oeb[13]
*44 io_oeb[14]
*45 io_oeb[15]
*46 io_oeb[16]
*47 io_oeb[17]
*48 io_oeb[18]
*49 io_oeb[19]
*50 io_oeb[1]
*51 io_oeb[20]
*52 io_oeb[21]
*53 io_oeb[22]
*54 io_oeb[23]
*55 io_oeb[24]
*56 io_oeb[25]
*57 io_oeb[26]
*58 io_oeb[27]
*59 io_oeb[28]
*60 io_oeb[29]
*61 io_oeb[2]
*62 io_oeb[30]
*63 io_oeb[31]
*64 io_oeb[32]
*65 io_oeb[33]
*66 io_oeb[34]
*67 io_oeb[35]
*68 io_oeb[36]
*69 io_oeb[37]
*70 io_oeb[3]
*71 io_oeb[4]
*72 io_oeb[5]
*73 io_oeb[6]
*74 io_oeb[7]
*75 io_oeb[8]
*76 io_oeb[9]
*77 io_out[0]
*78 io_out[10]
*79 io_out[11]
*80 io_out[12]
*81 io_out[13]
*82 io_out[14]
*83 io_out[15]
*84 io_out[16]
*85 io_out[17]
*86 io_out[18]
*87 io_out[19]
*88 io_out[1]
*89 io_out[20]
*90 io_out[21]
*91 io_out[22]
*92 io_out[23]
*93 io_out[24]
*94 io_out[25]
*95 io_out[26]
*96 io_out[27]
*97 io_out[28]
*98 io_out[29]
*99 io_out[2]
*100 io_out[30]
*101 io_out[31]
*102 io_out[32]
*103 io_out[33]
*104 io_out[34]
*105 io_out[35]
*106 io_out[36]
*107 io_out[37]
*108 io_out[3]
*109 io_out[4]
*110 io_out[5]
*111 io_out[6]
*112 io_out[7]
*113 io_out[8]
*114 io_out[9]
*115 la_data_in[0]
*116 la_data_in[10]
*117 la_data_in[11]
*118 la_data_in[12]
*119 la_data_in[13]
*120 la_data_in[14]
*121 la_data_in[15]
*122 la_data_in[16]
*123 la_data_in[17]
*124 la_data_in[18]
*125 la_data_in[19]
*126 la_data_in[1]
*127 la_data_in[20]
*128 la_data_in[21]
*129 la_data_in[22]
*130 la_data_in[23]
*131 la_data_in[24]
*132 la_data_in[25]
*133 la_data_in[26]
*134 la_data_in[27]
*135 la_data_in[28]
*136 la_data_in[29]
*137 la_data_in[2]
*138 la_data_in[30]
*139 la_data_in[31]
*140 la_data_in[32]
*141 la_data_in[33]
*142 la_data_in[34]
*143 la_data_in[35]
*144 la_data_in[36]
*145 la_data_in[37]
*146 la_data_in[38]
*147 la_data_in[39]
*148 la_data_in[3]
*149 la_data_in[40]
*150 la_data_in[41]
*151 la_data_in[42]
*152 la_data_in[43]
*153 la_data_in[44]
*154 la_data_in[45]
*155 la_data_in[46]
*156 la_data_in[47]
*157 la_data_in[48]
*158 la_data_in[49]
*159 la_data_in[4]
*160 la_data_in[50]
*161 la_data_in[51]
*162 la_data_in[52]
*163 la_data_in[53]
*164 la_data_in[54]
*165 la_data_in[55]
*166 la_data_in[56]
*167 la_data_in[57]
*168 la_data_in[58]
*169 la_data_in[59]
*170 la_data_in[5]
*171 la_data_in[60]
*172 la_data_in[61]
*173 la_data_in[62]
*174 la_data_in[63]
*175 la_data_in[6]
*176 la_data_in[7]
*177 la_data_in[8]
*178 la_data_in[9]
*179 la_data_out[0]
*180 la_data_out[10]
*181 la_data_out[11]
*182 la_data_out[12]
*183 la_data_out[13]
*184 la_data_out[14]
*185 la_data_out[15]
*186 la_data_out[16]
*187 la_data_out[17]
*188 la_data_out[18]
*189 la_data_out[19]
*190 la_data_out[1]
*191 la_data_out[20]
*192 la_data_out[21]
*193 la_data_out[22]
*194 la_data_out[23]
*195 la_data_out[24]
*196 la_data_out[25]
*197 la_data_out[26]
*198 la_data_out[27]
*199 la_data_out[28]
*200 la_data_out[29]
*201 la_data_out[2]
*202 la_data_out[30]
*203 la_data_out[31]
*204 la_data_out[32]
*205 la_data_out[33]
*206 la_data_out[34]
*207 la_data_out[35]
*208 la_data_out[36]
*209 la_data_out[37]
*210 la_data_out[38]
*211 la_data_out[39]
*212 la_data_out[3]
*213 la_data_out[40]
*214 la_data_out[41]
*215 la_data_out[42]
*216 la_data_out[43]
*217 la_data_out[44]
*218 la_data_out[45]
*219 la_data_out[46]
*220 la_data_out[47]
*221 la_data_out[48]
*222 la_data_out[49]
*223 la_data_out[4]
*224 la_data_out[50]
*225 la_data_out[51]
*226 la_data_out[52]
*227 la_data_out[53]
*228 la_data_out[54]
*229 la_data_out[55]
*230 la_data_out[56]
*231 la_data_out[57]
*232 la_data_out[58]
*233 la_data_out[59]
*234 la_data_out[5]
*235 la_data_out[60]
*236 la_data_out[61]
*237 la_data_out[62]
*238 la_data_out[63]
*239 la_data_out[6]
*240 la_data_out[7]
*241 la_data_out[8]
*242 la_data_out[9]
*243 la_oenb[0]
*244 la_oenb[10]
*245 la_oenb[11]
*246 la_oenb[12]
*247 la_oenb[13]
*248 la_oenb[14]
*249 la_oenb[15]
*250 la_oenb[16]
*251 la_oenb[17]
*252 la_oenb[18]
*253 la_oenb[19]
*254 la_oenb[1]
*255 la_oenb[20]
*256 la_oenb[21]
*257 la_oenb[22]
*258 la_oenb[23]
*259 la_oenb[24]
*260 la_oenb[25]
*261 la_oenb[26]
*262 la_oenb[27]
*263 la_oenb[28]
*264 la_oenb[29]
*265 la_oenb[2]
*266 la_oenb[30]
*267 la_oenb[31]
*268 la_oenb[32]
*269 la_oenb[33]
*270 la_oenb[34]
*271 la_oenb[35]
*272 la_oenb[36]
*273 la_oenb[37]
*274 la_oenb[38]
*275 la_oenb[39]
*276 la_oenb[3]
*277 la_oenb[40]
*278 la_oenb[41]
*279 la_oenb[42]
*280 la_oenb[43]
*281 la_oenb[44]
*282 la_oenb[45]
*283 la_oenb[46]
*284 la_oenb[47]
*285 la_oenb[48]
*286 la_oenb[49]
*287 la_oenb[4]
*288 la_oenb[50]
*289 la_oenb[51]
*290 la_oenb[52]
*291 la_oenb[53]
*292 la_oenb[54]
*293 la_oenb[55]
*294 la_oenb[56]
*295 la_oenb[57]
*296 la_oenb[58]
*297 la_oenb[59]
*298 la_oenb[5]
*299 la_oenb[60]
*300 la_oenb[61]
*301 la_oenb[62]
*302 la_oenb[63]
*303 la_oenb[6]
*304 la_oenb[7]
*305 la_oenb[8]
*306 la_oenb[9]
*307 user_clock2
*308 user_irq[0]
*309 user_irq[1]
*310 user_irq[2]
*313 wb_clk_i
*314 wb_rst_i
*315 wbs_ack_o
*316 wbs_adr_i[0]
*317 wbs_adr_i[10]
*318 wbs_adr_i[11]
*319 wbs_adr_i[12]
*320 wbs_adr_i[13]
*321 wbs_adr_i[14]
*322 wbs_adr_i[15]
*323 wbs_adr_i[16]
*324 wbs_adr_i[17]
*325 wbs_adr_i[18]
*326 wbs_adr_i[19]
*327 wbs_adr_i[1]
*328 wbs_adr_i[20]
*329 wbs_adr_i[21]
*330 wbs_adr_i[22]
*331 wbs_adr_i[23]
*332 wbs_adr_i[24]
*333 wbs_adr_i[25]
*334 wbs_adr_i[26]
*335 wbs_adr_i[27]
*336 wbs_adr_i[28]
*337 wbs_adr_i[29]
*338 wbs_adr_i[2]
*339 wbs_adr_i[30]
*340 wbs_adr_i[31]
*341 wbs_adr_i[3]
*342 wbs_adr_i[4]
*343 wbs_adr_i[5]
*344 wbs_adr_i[6]
*345 wbs_adr_i[7]
*346 wbs_adr_i[8]
*347 wbs_adr_i[9]
*348 wbs_cyc_i
*349 wbs_dat_i[0]
*350 wbs_dat_i[10]
*351 wbs_dat_i[11]
*352 wbs_dat_i[12]
*353 wbs_dat_i[13]
*354 wbs_dat_i[14]
*355 wbs_dat_i[15]
*356 wbs_dat_i[16]
*357 wbs_dat_i[17]
*358 wbs_dat_i[18]
*359 wbs_dat_i[19]
*360 wbs_dat_i[1]
*361 wbs_dat_i[20]
*362 wbs_dat_i[21]
*363 wbs_dat_i[22]
*364 wbs_dat_i[23]
*365 wbs_dat_i[24]
*366 wbs_dat_i[25]
*367 wbs_dat_i[26]
*368 wbs_dat_i[27]
*369 wbs_dat_i[28]
*370 wbs_dat_i[29]
*371 wbs_dat_i[2]
*372 wbs_dat_i[30]
*373 wbs_dat_i[31]
*374 wbs_dat_i[3]
*375 wbs_dat_i[4]
*376 wbs_dat_i[5]
*377 wbs_dat_i[6]
*378 wbs_dat_i[7]
*379 wbs_dat_i[8]
*380 wbs_dat_i[9]
*381 wbs_dat_o[0]
*382 wbs_dat_o[10]
*383 wbs_dat_o[11]
*384 wbs_dat_o[12]
*385 wbs_dat_o[13]
*386 wbs_dat_o[14]
*387 wbs_dat_o[15]
*388 wbs_dat_o[16]
*389 wbs_dat_o[17]
*390 wbs_dat_o[18]
*391 wbs_dat_o[19]
*392 wbs_dat_o[1]
*393 wbs_dat_o[20]
*394 wbs_dat_o[21]
*395 wbs_dat_o[22]
*396 wbs_dat_o[23]
*397 wbs_dat_o[24]
*398 wbs_dat_o[25]
*399 wbs_dat_o[26]
*400 wbs_dat_o[27]
*401 wbs_dat_o[28]
*402 wbs_dat_o[29]
*403 wbs_dat_o[2]
*404 wbs_dat_o[30]
*405 wbs_dat_o[31]
*406 wbs_dat_o[3]
*407 wbs_dat_o[4]
*408 wbs_dat_o[5]
*409 wbs_dat_o[6]
*410 wbs_dat_o[7]
*411 wbs_dat_o[8]
*412 wbs_dat_o[9]
*413 wbs_sel_i[0]
*414 wbs_sel_i[1]
*415 wbs_sel_i[2]
*416 wbs_sel_i[3]
*417 wbs_stb_i
*418 wbs_we_i
*419 j1a

*PORTS
io_in[0] I
io_in[10] I
io_in[11] I
io_in[12] I
io_in[13] I
io_in[14] I
io_in[15] I
io_in[16] I
io_in[17] I
io_in[18] I
io_in[19] I
io_in[1] I
io_in[20] I
io_in[21] I
io_in[22] I
io_in[23] I
io_in[24] I
io_in[25] I
io_in[26] I
io_in[27] I
io_in[28] I
io_in[29] I
io_in[2] I
io_in[30] I
io_in[31] I
io_in[32] I
io_in[33] I
io_in[34] I
io_in[35] I
io_in[36] I
io_in[37] I
io_in[3] I
io_in[4] I
io_in[5] I
io_in[6] I
io_in[7] I
io_in[8] I
io_in[9] I
io_oeb[0] O
io_oeb[10] O
io_oeb[11] O
io_oeb[12] O
io_oeb[13] O
io_oeb[14] O
io_oeb[15] O
io_oeb[16] O
io_oeb[17] O
io_oeb[18] O
io_oeb[19] O
io_oeb[1] O
io_oeb[20] O
io_oeb[21] O
io_oeb[22] O
io_oeb[23] O
io_oeb[24] O
io_oeb[25] O
io_oeb[26] O
io_oeb[27] O
io_oeb[28] O
io_oeb[29] O
io_oeb[2] O
io_oeb[30] O
io_oeb[31] O
io_oeb[32] O
io_oeb[33] O
io_oeb[34] O
io_oeb[35] O
io_oeb[36] O
io_oeb[37] O
io_oeb[3] O
io_oeb[4] O
io_oeb[5] O
io_oeb[6] O
io_oeb[7] O
io_oeb[8] O
io_oeb[9] O
io_out[0] O
io_out[10] O
io_out[11] O
io_out[12] O
io_out[13] O
io_out[14] O
io_out[15] O
io_out[16] O
io_out[17] O
io_out[18] O
io_out[19] O
io_out[1] O
io_out[20] O
io_out[21] O
io_out[22] O
io_out[23] O
io_out[24] O
io_out[25] O
io_out[26] O
io_out[27] O
io_out[28] O
io_out[29] O
io_out[2] O
io_out[30] O
io_out[31] O
io_out[32] O
io_out[33] O
io_out[34] O
io_out[35] O
io_out[36] O
io_out[37] O
io_out[3] O
io_out[4] O
io_out[5] O
io_out[6] O
io_out[7] O
io_out[8] O
io_out[9] O
la_data_in[0] I
la_data_in[10] I
la_data_in[11] I
la_data_in[12] I
la_data_in[13] I
la_data_in[14] I
la_data_in[15] I
la_data_in[16] I
la_data_in[17] I
la_data_in[18] I
la_data_in[19] I
la_data_in[1] I
la_data_in[20] I
la_data_in[21] I
la_data_in[22] I
la_data_in[23] I
la_data_in[24] I
la_data_in[25] I
la_data_in[26] I
la_data_in[27] I
la_data_in[28] I
la_data_in[29] I
la_data_in[2] I
la_data_in[30] I
la_data_in[31] I
la_data_in[32] I
la_data_in[33] I
la_data_in[34] I
la_data_in[35] I
la_data_in[36] I
la_data_in[37] I
la_data_in[38] I
la_data_in[39] I
la_data_in[3] I
la_data_in[40] I
la_data_in[41] I
la_data_in[42] I
la_data_in[43] I
la_data_in[44] I
la_data_in[45] I
la_data_in[46] I
la_data_in[47] I
la_data_in[48] I
la_data_in[49] I
la_data_in[4] I
la_data_in[50] I
la_data_in[51] I
la_data_in[52] I
la_data_in[53] I
la_data_in[54] I
la_data_in[55] I
la_data_in[56] I
la_data_in[57] I
la_data_in[58] I
la_data_in[59] I
la_data_in[5] I
la_data_in[60] I
la_data_in[61] I
la_data_in[62] I
la_data_in[63] I
la_data_in[6] I
la_data_in[7] I
la_data_in[8] I
la_data_in[9] I
la_data_out[0] O
la_data_out[10] O
la_data_out[11] O
la_data_out[12] O
la_data_out[13] O
la_data_out[14] O
la_data_out[15] O
la_data_out[16] O
la_data_out[17] O
la_data_out[18] O
la_data_out[19] O
la_data_out[1] O
la_data_out[20] O
la_data_out[21] O
la_data_out[22] O
la_data_out[23] O
la_data_out[24] O
la_data_out[25] O
la_data_out[26] O
la_data_out[27] O
la_data_out[28] O
la_data_out[29] O
la_data_out[2] O
la_data_out[30] O
la_data_out[31] O
la_data_out[32] O
la_data_out[33] O
la_data_out[34] O
la_data_out[35] O
la_data_out[36] O
la_data_out[37] O
la_data_out[38] O
la_data_out[39] O
la_data_out[3] O
la_data_out[40] O
la_data_out[41] O
la_data_out[42] O
la_data_out[43] O
la_data_out[44] O
la_data_out[45] O
la_data_out[46] O
la_data_out[47] O
la_data_out[48] O
la_data_out[49] O
la_data_out[4] O
la_data_out[50] O
la_data_out[51] O
la_data_out[52] O
la_data_out[53] O
la_data_out[54] O
la_data_out[55] O
la_data_out[56] O
la_data_out[57] O
la_data_out[58] O
la_data_out[59] O
la_data_out[5] O
la_data_out[60] O
la_data_out[61] O
la_data_out[62] O
la_data_out[63] O
la_data_out[6] O
la_data_out[7] O
la_data_out[8] O
la_data_out[9] O
la_oenb[0] I
la_oenb[10] I
la_oenb[11] I
la_oenb[12] I
la_oenb[13] I
la_oenb[14] I
la_oenb[15] I
la_oenb[16] I
la_oenb[17] I
la_oenb[18] I
la_oenb[19] I
la_oenb[1] I
la_oenb[20] I
la_oenb[21] I
la_oenb[22] I
la_oenb[23] I
la_oenb[24] I
la_oenb[25] I
la_oenb[26] I
la_oenb[27] I
la_oenb[28] I
la_oenb[29] I
la_oenb[2] I
la_oenb[30] I
la_oenb[31] I
la_oenb[32] I
la_oenb[33] I
la_oenb[34] I
la_oenb[35] I
la_oenb[36] I
la_oenb[37] I
la_oenb[38] I
la_oenb[39] I
la_oenb[3] I
la_oenb[40] I
la_oenb[41] I
la_oenb[42] I
la_oenb[43] I
la_oenb[44] I
la_oenb[45] I
la_oenb[46] I
la_oenb[47] I
la_oenb[48] I
la_oenb[49] I
la_oenb[4] I
la_oenb[50] I
la_oenb[51] I
la_oenb[52] I
la_oenb[53] I
la_oenb[54] I
la_oenb[55] I
la_oenb[56] I
la_oenb[57] I
la_oenb[58] I
la_oenb[59] I
la_oenb[5] I
la_oenb[60] I
la_oenb[61] I
la_oenb[62] I
la_oenb[63] I
la_oenb[6] I
la_oenb[7] I
la_oenb[8] I
la_oenb[9] I
user_clock2 I
user_irq[0] O
user_irq[1] O
user_irq[2] O
wb_clk_i I
wb_rst_i I
wbs_ack_o O
wbs_adr_i[0] I
wbs_adr_i[10] I
wbs_adr_i[11] I
wbs_adr_i[12] I
wbs_adr_i[13] I
wbs_adr_i[14] I
wbs_adr_i[15] I
wbs_adr_i[16] I
wbs_adr_i[17] I
wbs_adr_i[18] I
wbs_adr_i[19] I
wbs_adr_i[1] I
wbs_adr_i[20] I
wbs_adr_i[21] I
wbs_adr_i[22] I
wbs_adr_i[23] I
wbs_adr_i[24] I
wbs_adr_i[25] I
wbs_adr_i[26] I
wbs_adr_i[27] I
wbs_adr_i[28] I
wbs_adr_i[29] I
wbs_adr_i[2] I
wbs_adr_i[30] I
wbs_adr_i[31] I
wbs_adr_i[3] I
wbs_adr_i[4] I
wbs_adr_i[5] I
wbs_adr_i[6] I
wbs_adr_i[7] I
wbs_adr_i[8] I
wbs_adr_i[9] I
wbs_cyc_i I
wbs_dat_i[0] I
wbs_dat_i[10] I
wbs_dat_i[11] I
wbs_dat_i[12] I
wbs_dat_i[13] I
wbs_dat_i[14] I
wbs_dat_i[15] I
wbs_dat_i[16] I
wbs_dat_i[17] I
wbs_dat_i[18] I
wbs_dat_i[19] I
wbs_dat_i[1] I
wbs_dat_i[20] I
wbs_dat_i[21] I
wbs_dat_i[22] I
wbs_dat_i[23] I
wbs_dat_i[24] I
wbs_dat_i[25] I
wbs_dat_i[26] I
wbs_dat_i[27] I
wbs_dat_i[28] I
wbs_dat_i[29] I
wbs_dat_i[2] I
wbs_dat_i[30] I
wbs_dat_i[31] I
wbs_dat_i[3] I
wbs_dat_i[4] I
wbs_dat_i[5] I
wbs_dat_i[6] I
wbs_dat_i[7] I
wbs_dat_i[8] I
wbs_dat_i[9] I
wbs_dat_o[0] O
wbs_dat_o[10] O
wbs_dat_o[11] O
wbs_dat_o[12] O
wbs_dat_o[13] O
wbs_dat_o[14] O
wbs_dat_o[15] O
wbs_dat_o[16] O
wbs_dat_o[17] O
wbs_dat_o[18] O
wbs_dat_o[19] O
wbs_dat_o[1] O
wbs_dat_o[20] O
wbs_dat_o[21] O
wbs_dat_o[22] O
wbs_dat_o[23] O
wbs_dat_o[24] O
wbs_dat_o[25] O
wbs_dat_o[26] O
wbs_dat_o[27] O
wbs_dat_o[28] O
wbs_dat_o[29] O
wbs_dat_o[2] O
wbs_dat_o[30] O
wbs_dat_o[31] O
wbs_dat_o[3] O
wbs_dat_o[4] O
wbs_dat_o[5] O
wbs_dat_o[6] O
wbs_dat_o[7] O
wbs_dat_o[8] O
wbs_dat_o[9] O
wbs_sel_i[0] I
wbs_sel_i[1] I
wbs_sel_i[2] I
wbs_sel_i[3] I
wbs_stb_i I
wbs_we_i I

*D_NET *15 0.746029
*CONN
*P io_in[22] I
*I *419:tck I *D J1Asic
*CAP
1 io_in[22] 0.00107836
2 *419:tck 0.000819648
3 *15:25 0.000994455
4 *15:23 0.000174807
5 *15:21 0.00293597
6 *15:19 0.00617161
7 *15:13 0.0494862
8 *15:11 0.0473289
9 *15:19 *51:19 0.000509701
10 *15:21 *51:13 0.272193
11 *15:21 *90:10 0.271633
12 *15:25 *25:21 0.0115502
13 *15:25 *53:9 0.00016407
14 *15:25 *54:15 0.00334985
15 *15:25 *63:9 0.0447921
16 *15:25 *313:17 0.0328473
*RES
1 io_in[22] *15:11 17.892 
2 *15:11 *15:13 413.456 
3 *15:13 *15:19 23.9482 
4 *15:19 *15:21 683.536 
5 *15:21 *15:23 4.5 
6 *15:23 *15:25 112.008 
7 *15:25 *419:tck 8.92 
*END

*D_NET *16 0.371283
*CONN
*P io_in[23] I
*I *419:tms I *D J1Asic
*CAP
1 io_in[23] 0.00113656
2 *419:tms 0.000379038
3 *16:17 0.00136926
4 *16:15 0.00099022
5 *16:13 0.121517
6 *16:11 0.121517
7 *16:9 0.00753133
8 *16:7 0.00866789
9 *16:9 *53:19 0.0143142
10 *16:17 *105:14 0.0641294
11 *16:17 *107:12 0.0297309
*RES
1 io_in[23] *16:7 14.12 
2 *16:7 *16:9 82.888 
3 *16:9 *16:11 4.5 
4 *16:11 *16:13 1088.36 
5 *16:13 *16:15 4.5 
6 *16:15 *16:17 170.04 
7 *16:17 *419:tms 15.268 
*END

*D_NET *17 0.649463
*CONN
*P io_in[24] I
*I *419:tdi I *D J1Asic
*CAP
1 io_in[24] 0.00312633
2 *419:tdi 0.000135602
3 *17:13 0.0275385
4 *17:11 0.0274029
5 *17:9 0.10003
6 *17:7 0.103156
7 *17:9 *24:9 0.0521434
8 *17:9 *54:19 0.157913
9 *17:13 *58:12 0.169941
10 *17:13 *90:6 0.00807607
*RES
1 io_in[24] *17:7 30.344 
2 *17:7 *17:9 1084.36 
3 *17:9 *17:11 4.5 
4 *17:11 *17:13 149.03 
5 *17:13 *419:tdi 14.1797 
*END

*D_NET *18 0.846563
*CONN
*P io_in[25] I
*I *419:rx I *D J1Asic
*CAP
1 io_in[25] 0.00244814
2 *419:rx 6.59771e-05
3 *18:13 0.023173
4 *18:11 0.023107
5 *18:9 0.0699912
6 *18:7 0.0724394
7 *18:9 io_oeb[23] 0.0108853
8 *18:9 *22:9 0.0588225
9 *18:9 *58:16 0.0274763
10 *18:9 *60:19 0.255869
11 *18:13 *27:13 0.0177125
12 *18:13 *28:13 0.0208119
13 *18:13 *51:9 0.0086027
14 *18:13 *57:9 0.0160777
15 *18:13 *58:12 0.222846
16 *18:13 *60:15 0
17 *18:13 *65:9 0.0145565
18 *18:13 *89:6 0.00167776
*RES
1 io_in[25] *18:7 24.104 
2 *18:7 *18:9 1006.4 
3 *18:9 *18:11 4.5 
4 *18:11 *18:13 195.535 
5 *18:13 *419:rx 13.8083 
*END

*D_NET *19 0.227892
*CONN
*P io_in[26] I
*I *419:extInt[0] I *D J1Asic
*CAP
1 io_in[26] 0.00273919
2 *419:extInt[0] 0.098198
3 *19:7 0.100937
4 *419:extInt[0] io_oeb[23] 0
5 *419:extInt[0] *419:extInt[1] 0.0181455
6 *419:extInt[0] *22:9 0
7 *419:extInt[0] *27:9 0
8 *419:extInt[0] *30:9 0.00787208
*RES
1 io_in[26] *19:7 26.184 
2 *19:7 *419:extInt[0] 926.276 
*END

*D_NET *20 0.299008
*CONN
*P io_in[27] I
*I *419:extInt[1] I *D J1Asic
*CAP
1 io_in[27] 0.00354772
2 *419:extInt[1] 0.06303
3 *20:7 0.0665777
4 *419:extInt[1] *30:9 0.0532591
5 *419:extInt[1] *59:16 0.0246243
6 *419:extInt[1] *102:13 0.0698241
7 *419:extInt[0] *419:extInt[1] 0.0181455
*RES
1 io_in[27] *20:7 27.432 
2 *20:7 *419:extInt[1] 847.652 
*END

*D_NET *21 0.640312
*CONN
*P io_in[28] I
*I *419:extInt[2] I *D J1Asic
*CAP
1 io_in[28] 0.00210146
2 *419:extInt[2] 0.000212107
3 *21:13 0.034871
4 *21:11 0.0346589
5 *21:9 0.0252959
6 *21:7 0.0273974
7 *21:9 *26:9 0.055905
8 *21:9 *28:9 3.14958e-05
9 *21:9 *57:13 0.0470485
10 *21:9 *63:13 0.188624
11 *21:9 *106:16 0.0439676
12 *21:13 *22:13 0.139812
13 *21:13 *51:9 0.0399773
14 *21:13 *57:9 0.000408667
15 *21:13 *62:9 0
16 *21:13 *104:9 0
*RES
1 io_in[28] *21:7 18.28 
2 *21:7 *21:9 771.784 
3 *21:9 *21:11 4.5 
4 *21:11 *21:13 587.08 
5 *21:13 *419:extInt[2] 6.008 
*END

*D_NET *22 0.577876
*CONN
*P io_in[29] I
*I *419:boardClkLocked I *D J1Asic
*CAP
1 io_in[29] 0.00247928
2 *419:boardClkLocked 0.000278978
3 *22:13 0.00179757
4 *22:11 0.00151859
5 *22:9 0.0462535
6 *22:7 0.0487328
7 *22:9 io_oeb[23] 0.115775
8 *22:9 *27:9 0.0614981
9 *22:9 *313:15 1.47115e-05
10 *22:13 *51:9 0.0723001
11 *22:13 *57:9 0.000995224
12 *22:13 *65:9 0.0275981
13 *419:extInt[0] *22:9 0
14 *18:9 *22:9 0.0588225
15 *21:13 *22:13 0.139812
*RES
1 io_in[29] *22:7 24.104 
2 *22:7 *22:9 692.952 
3 *22:9 *22:11 4.5 
4 *22:11 *22:13 350.376 
5 *22:13 *419:boardClkLocked 5.8 
*END

*D_NET *24 0.613087
*CONN
*P io_in[30] I
*I *419:pmodA_read[0] I *D J1Asic
*CAP
1 io_in[30] 0.00331202
2 *419:pmodA_read[0] 0
3 *24:13 0.00417895
4 *24:11 0.00417895
5 *24:9 0.0397055
6 *24:7 0.0430176
7 *24:9 *62:13 0.218511
8 *24:9 *314:7 0
9 *24:13 *419:pmodA_read[5] 0.000326374
10 *24:13 *26:13 0.000445492
11 *24:13 *51:9 0
12 *24:13 *64:6 0.0381797
13 *24:13 *66:8 0.000751701
14 *24:13 *66:10 0.0874534
15 *24:13 *68:15 0.000282445
16 *24:13 *90:6 0.11557
17 *24:13 *105:12 0.00412117
18 *24:13 *313:15 0.000573447
19 *24:13 *314:9 0.000336373
20 *17:9 *24:9 0.0521434
*RES
1 io_in[30] *24:7 30.344 
2 *24:7 *24:9 612.248 
3 *24:9 *24:11 4.5 
4 *24:11 *24:13 525.096 
5 *24:13 *419:pmodA_read[0] 4.5 
*END

*D_NET *25 0.553046
*CONN
*P io_in[31] I
*I *419:pmodA_read[1] I *D J1Asic
*CAP
1 io_in[31] 0.000790409
2 *419:pmodA_read[1] 0.000562127
3 *25:21 0.00206822
4 *25:19 0.00336405
5 *25:13 0.0129358
6 *25:11 0.0110778
7 *25:9 0.059421
8 *25:7 0.0602114
9 *419:pmodA_read[1] *101:7 7.51001e-05
10 *25:9 io_out[37] 0.00105282
11 *25:9 *68:21 0.0026304
12 *25:9 *100:27 0.0162449
13 *25:9 *101:21 0.042861
14 *25:9 *103:21 0.0071665
15 *25:9 *105:18 0.00524706
16 *25:13 *31:13 0.000374664
17 *25:13 *59:12 0.121987
18 *25:13 *67:12 0.00021196
19 *25:13 *68:17 0.000201662
20 *25:13 *89:14 0.0403682
21 *25:13 *101:19 0.000663239
22 *25:21 *53:9 0.0984841
23 *25:21 *54:15 0.00542627
24 *25:21 *63:9 0.0414192
25 *25:21 *100:15 0.00302437
26 *25:21 *101:9 0.0013154
27 *25:21 *103:9 0.00231075
28 *15:25 *25:21 0.0115502
*RES
1 io_in[31] *25:7 11.624 
2 *25:7 *25:9 528.977 
3 *25:9 *25:11 4.5 
4 *25:11 *25:13 113.661 
5 *25:13 *25:19 18.7426 
6 *25:19 *25:21 271.128 
7 *25:21 *419:pmodA_read[1] 8.712 
*END

*D_NET *26 0.525201
*CONN
*P io_in[32] I
*I *419:pmodA_read[2] I *D J1Asic
*CAP
1 io_in[32] 0.00180908
2 *419:pmodA_read[2] 0
3 *26:13 0.00328018
4 *26:11 0.00328018
5 *26:9 0.0158311
6 *26:7 0.0176402
7 *26:9 *28:9 0.0485906
8 *26:9 *106:16 0.0439603
9 *26:13 *419:pmodA_read[4] 0.00490974
10 *26:13 *28:13 0.0806594
11 *26:13 *51:9 0.000183982
12 *26:13 *57:9 3.52832e-05
13 *26:13 *58:12 0.0238784
14 *26:13 *64:6 0.208318
15 *26:13 *89:6 0.016474
16 *26:13 *106:12 0
17 *21:9 *26:9 0.055905
18 *24:13 *26:13 0.000445492
*RES
1 io_in[32] *26:7 18.696 
2 *26:7 *26:9 455.624 
3 *26:9 *26:11 4.5 
4 *26:11 *26:13 528.008 
5 *26:13 *419:pmodA_read[2] 4.5 
*END

*D_NET *27 0.56345
*CONN
*P io_in[33] I
*I *419:pmodA_read[3] I *D J1Asic
*CAP
1 io_in[33] 0.00269173
2 *419:pmodA_read[3] 7.3237e-05
3 *27:13 0.0012584
4 *27:11 0.00118517
5 *27:9 0.0262972
6 *27:7 0.0289889
7 *419:pmodA_read[3] *103:7 7.18295e-06
8 *419:pmodA_read[3] *104:7 7.18295e-06
9 *27:9 *58:16 0.0159188
10 *27:9 *313:15 4.55348e-05
11 *27:13 *419:pmodA_read[4] 0.00165021
12 *27:13 *28:13 0.201043
13 *27:13 *51:9 0.000284957
14 *27:13 *57:9 0.201967
15 *27:13 *58:12 0.00195468
16 *27:13 *65:9 0.000866216
17 *419:extInt[0] *27:9 0
18 *18:13 *27:13 0.0177125
19 *22:9 *27:9 0.0614981
*RES
1 io_in[33] *27:7 24.52 
2 *27:7 *27:9 377.624 
3 *27:9 *27:11 4.5 
4 *27:11 *27:13 513.448 
5 *27:13 *419:pmodA_read[3] 4.968 
*END

*D_NET *28 0.426849
*CONN
*P io_in[34] I
*I *419:pmodA_read[4] I *D J1Asic
*CAP
1 io_in[34] 0.00189766
2 *419:pmodA_read[4] 0.00028037
3 *28:13 0.00310357
4 *28:11 0.0028232
5 *28:9 0.0208388
6 *28:7 0.0227365
7 *419:pmodA_read[4] *51:9 0.000162259
8 *28:9 *64:10 0
9 *28:13 *57:9 0.000826948
10 *28:13 *89:6 0.0164839
11 *18:13 *28:13 0.0208119
12 *21:9 *28:9 3.14958e-05
13 *26:9 *28:9 0.0485906
14 *26:13 *419:pmodA_read[4] 0.00490974
15 *26:13 *28:13 0.0806594
16 *27:13 *419:pmodA_read[4] 0.00165021
17 *27:13 *28:13 0.201043
*RES
1 io_in[34] *28:7 19.112 
2 *28:7 *28:9 298.792 
3 *28:9 *28:11 4.5 
4 *28:11 *28:13 508.976 
5 *28:13 *419:pmodA_read[4] 17.292 
*END

*D_NET *29 0.429497
*CONN
*P io_in[35] I
*I *419:pmodA_read[5] I *D J1Asic
*CAP
1 io_in[35] 0.00360535
2 *419:pmodA_read[5] 0.000652695
3 *29:13 0.0284327
4 *29:11 0.02778
5 *29:9 0.00568812
6 *29:7 0.00929347
7 *419:pmodA_read[5] *419:pmodA_read[6] 0
8 *419:pmodA_read[5] *66:10 0.000316479
9 *29:9 *54:19 0.00740586
10 *29:9 *62:13 0.0840467
11 *29:9 *103:13 0.0477341
12 *29:13 *30:13 0.198695
13 *29:13 *59:12 0.0155205
14 *29:13 *107:12 0
15 *24:13 *419:pmodA_read[5] 0.000326374
*RES
1 io_in[35] *29:7 30.76 
2 *29:7 *29:9 215.384 
3 *29:9 *29:11 4.5 
4 *29:11 *29:13 496.392 
5 *29:13 *419:pmodA_read[5] 18.076 
*END

*D_NET *30 0.501233
*CONN
*P io_in[36] I
*I *419:pmodA_read[6] I *D J1Asic
*CAP
1 io_in[36] 0.00314068
2 *419:pmodA_read[6] 0.000608246
3 *30:13 0.00161355
4 *30:11 0.0010053
5 *30:9 0.00475115
6 *30:7 0.00789183
7 *30:9 *59:16 0.00581062
8 *30:13 *59:12 0.0167988
9 *30:13 *67:12 0.000824931
10 *30:13 *68:17 0.198962
11 *30:13 *107:12 0
12 *419:extInt[0] *30:9 0.00787208
13 *419:extInt[1] *30:9 0.0532591
14 *419:pmodA_read[5] *419:pmodA_read[6] 0
15 *29:13 *30:13 0.198695
*RES
1 io_in[36] *30:7 27.224 
2 *30:7 *30:9 136.552 
3 *30:9 *30:11 4.5 
4 *30:11 *30:13 502.008 
5 *30:13 *419:pmodA_read[6] 17.348 
*END

*D_NET *31 0.322284
*CONN
*P io_in[37] I
*I *419:pmodA_read[7] I *D J1Asic
*CAP
1 io_in[37] 0.00138089
2 *419:pmodA_read[7] 0.000671872
3 *31:13 0.0287908
4 *31:11 0.0281189
5 *31:9 0.00483692
6 *31:7 0.00621781
7 *419:pmodA_read[7] *106:10 1.52673e-05
8 *31:9 *104:13 0.021041
9 *31:13 *59:12 0.0170787
10 *31:13 *67:12 0.206534
11 *31:13 *101:19 0.00722328
12 *25:13 *31:13 0.000374664
*RES
1 io_in[37] *31:7 14.952 
2 *31:7 *31:9 57.304 
3 *31:9 *31:11 4.5 
4 *31:11 *31:13 516.776 
5 *31:13 *419:pmodA_read[7] 17.972 
*END

*D_NET *51 0.785502
*CONN
*P io_oeb[20] O
*I *419:io_oeb_low[0] O *D J1Asic
*CAP
1 io_oeb[20] 0.00113656
2 *419:io_oeb_low[0] 0.000143245
3 *51:137 0.013857
4 *51:135 0.0142717
5 *51:127 0.00399224
6 *51:123 0.00548953
7 *51:115 0.00587613
8 *51:101 0.0109821
9 *51:99 0.00853756
10 *51:95 0.00559733
11 *51:91 0.00593643
12 *51:87 0.00554801
13 *51:83 0.0053595
14 *51:77 0.00894326
15 *51:75 0.0114825
16 *51:63 0.00651394
17 *51:53 0.00675778
18 *51:43 0.00611413
19 *51:23 0.00765621
20 *51:19 0.00557121
21 *51:13 0.0400427
22 *51:11 0.0393302
23 *51:9 0.0094391
24 *51:7 0.00958235
25 *51:9 *65:9 0.136646
26 *51:13 *90:10 0.000228599
27 *51:43 *56:9 0
28 *51:53 *89:34 0.00921963
29 *51:75 *90:30 0.00127697
30 *51:77 *89:52 0
31 *51:127 io_oeb[21] 0.00575577
32 *419:pmodA_read[4] *51:9 0.000162259
33 *15:19 *51:19 0.000509701
34 *15:21 *51:13 0.272193
35 *18:13 *51:9 0.0086027
36 *21:13 *51:9 0.0399773
37 *22:13 *51:9 0.0723001
38 *24:13 *51:9 0
39 *26:13 *51:9 0.000183982
40 *27:13 *51:9 0.000284957
*RES
1 *419:io_oeb_low[0] *51:7 5.592 
2 *51:7 *51:9 450.424 
3 *51:9 *51:11 4.5 
4 *51:11 *51:13 681.545 
5 *51:13 *51:19 11.4755 
6 *51:19 *51:23 47.0026 
7 *51:23 *51:43 46.108 
8 *51:43 *51:53 48.416 
9 *51:53 *51:63 43.244 
10 *51:63 *51:75 40.02 
11 *51:75 *51:77 70.616 
12 *51:77 *51:83 12.224 
13 *51:83 *51:87 45.164 
14 *51:87 *51:91 10.844 
15 *51:91 *51:95 48.284 
16 *51:95 *51:99 7.724 
17 *51:99 *51:101 68.744 
18 *51:101 *51:115 41.608 
19 *51:115 *51:123 34.168 
20 *51:123 *51:127 39.756 
21 *51:127 *51:135 22.52 
22 *51:135 *51:137 111.592 
23 *51:137 io_oeb[20] 14.12 
*END

*D_NET *52 0.287305
*CONN
*P io_oeb[21] O
*I *419:io_oeb_low[1] O *D J1Asic
*CAP
1 io_oeb[21] 0.040367
2 *419:io_oeb_low[1] 0.000599341
3 *52:11 0.040367
4 *52:9 0.0234638
5 *52:7 0.0240631
6 io_oeb[21] *89:64 0.00483923
7 *52:9 *55:9 0.00876618
8 *52:9 *56:9 0.139084
9 *51:127 io_oeb[21] 0.00575577
*RES
1 *419:io_oeb_low[1] *52:7 9.336 
2 *52:7 *52:9 400.088 
3 *52:9 *52:11 4.5 
4 *52:11 io_oeb[21] 368.004 
*END

*D_NET *53 0.551839
*CONN
*P io_oeb[22] O
*I *419:io_oeb_high[0] O *D J1Asic
*CAP
1 io_oeb[22] 0.00111232
2 *419:io_oeb_high[0] 0.000708726
3 *53:19 0.00307361
4 *53:13 0.124801
5 *53:11 0.12284
6 *53:9 0.000511757
7 *53:7 0.00122048
8 *53:9 *54:15 0.00913144
9 *53:9 *100:15 0.00261162
10 *53:9 *103:9 0.135851
11 *53:9 *313:17 0.0370157
12 *15:25 *53:9 0.00016407
13 *16:9 *53:19 0.0143142
14 *25:21 *53:9 0.0984841
*RES
1 *419:io_oeb_high[0] *53:7 8.504 
2 *53:7 *53:9 339.768 
3 *53:9 *53:11 4.5 
4 *53:11 *53:13 1095.22 
5 *53:13 *53:19 44.672 
6 *53:19 io_oeb[22] 9.412 
*END

*D_NET *54 0.850009
*CONN
*P io_oeb[23] O
*I *419:io_oeb_high[1] O *D J1Asic
*CAP
1 io_oeb[23] 0.0661489
2 *419:io_oeb_high[1] 0.000671526
3 *54:25 0.0670317
4 *54:19 0.0246611
5 *54:17 0.0237783
6 *54:15 0.0198243
7 *54:13 0.0204959
8 io_oeb[23] *58:16 0.00540836
9 io_oeb[23] *60:19 0.0104663
10 *54:15 *63:9 0.022089
11 *54:15 *100:15 0.200395
12 *54:15 *101:9 0.0185836
13 *54:15 *102:9 0.0156689
14 *54:15 *103:9 0.016344
15 *54:15 *313:17 0.00794091
16 *54:19 *62:13 0.0167156
17 *54:19 *103:13 0.00389865
18 *419:extInt[0] io_oeb[23] 0
19 *15:25 *54:15 0.00334985
20 *17:9 *54:19 0.157913
21 *18:9 io_oeb[23] 0.0108853
22 *22:9 io_oeb[23] 0.115775
23 *25:21 *54:15 0.00542627
24 *29:9 *54:19 0.00740586
25 *53:9 *54:15 0.00913144
*RES
1 *419:io_oeb_high[1] *54:13 17.2031 
2 *54:13 *54:15 175.668 
3 *54:15 *54:17 4.5 
4 *54:17 *54:19 398.851 
5 *54:19 *54:25 15.344 
6 *54:25 io_oeb[23] 705.38 
*END

*D_NET *55 0.428038
*CONN
*P io_oeb[24] O
*I *419:io_oeb_high[2] O *D J1Asic
*CAP
1 io_oeb[24] 0.000790543
2 *419:io_oeb_high[2] 0.000530479
3 *55:13 0.0254867
4 *55:11 0.0246962
5 *55:9 0.0447192
6 *55:7 0.0452497
7 *55:9 *56:9 0.24169
8 *55:13 *56:13 0.036109
9 *52:9 *55:9 0.00876618
*RES
1 *419:io_oeb_high[2] *55:7 8.92 
2 *55:7 *55:9 709.8 
3 *55:9 *55:11 4.5 
4 *55:11 *55:13 300.248 
5 *55:13 io_oeb[24] 11.624 
*END

*D_NET *56 0.482873
*CONN
*P io_oeb[25] O
*I *419:io_oeb_high[3] O *D J1Asic
*CAP
1 io_oeb[25] 0.000857432
2 *419:io_oeb_high[3] 0.000575115
3 *56:13 0.0162053
4 *56:11 0.0153479
5 *56:9 0.0162143
6 *56:7 0.0167894
7 *51:43 *56:9 0
8 *52:9 *56:9 0.139084
9 *55:9 *56:9 0.24169
10 *55:13 *56:13 0.036109
*RES
1 *419:io_oeb_high[3] *56:7 9.128 
2 *56:7 *56:9 607.048 
3 *56:9 *56:11 4.5 
4 *56:11 *56:13 221.416 
5 *56:13 io_oeb[25] 12.04 
*END

*D_NET *57 0.785359
*CONN
*P io_oeb[26] O
*I *419:io_oeb_high[4] O *D J1Asic
*CAP
1 io_oeb[26] 0.00164117
2 *419:io_oeb_high[4] 0.000124658
3 *57:13 0.0630285
4 *57:11 0.0613873
5 *57:9 0.0017075
6 *57:7 0.00183216
7 *57:9 *58:12 0.00149575
8 *57:9 *65:9 0.198482
9 *57:13 *63:13 0.188301
10 *18:13 *57:9 0.0160777
11 *21:9 *57:13 0.0470485
12 *21:13 *57:9 0.000408667
13 *22:13 *57:9 0.000995224
14 *26:13 *57:9 3.52832e-05
15 *27:13 *57:9 0.201967
16 *28:13 *57:9 0.000826948
*RES
1 *419:io_oeb_high[4] *57:7 5.176 
2 *57:7 *57:9 512.616 
3 *57:9 *57:11 4.5 
4 *57:11 *57:13 875.784 
5 *57:13 io_oeb[26] 17.864 
*END

*D_NET *58 0.931658
*CONN
*P io_oeb[27] O
*I *419:io_oeb_high[5] O *D J1Asic
*CAP
1 io_oeb[27] 0.00257988
2 *419:io_oeb_high[5] 3.27379e-05
3 *58:16 0.0441302
4 *58:14 0.0415503
5 *58:12 0.0305285
6 *58:10 0.0305612
7 *58:12 *60:15 0
8 *58:12 *64:6 0.0186627
9 *58:12 *65:9 0.00148278
10 *58:12 *90:6 0.00240524
11 *58:12 *313:15 0.000119238
12 *58:16 *60:19 0.25574
13 *58:16 *100:19 0.0349461
14 io_oeb[23] *58:16 0.00540836
15 *17:13 *58:12 0.169941
16 *18:9 *58:16 0.0274763
17 *18:13 *58:12 0.222846
18 *26:13 *58:12 0.0238784
19 *27:9 *58:16 0.0159188
20 *27:13 *58:12 0.00195468
21 *57:9 *58:12 0.00149575
*RES
1 *419:io_oeb_high[5] *58:10 13.682 
2 *58:10 *58:12 277.143 
3 *58:12 *58:14 4.5 
4 *58:14 *58:16 796.406 
5 *58:16 io_oeb[27] 24.52 
*END

*D_NET *59 0.500011
*CONN
*P io_oeb[28] O
*I *419:io_oeb_high[6] O *D J1Asic
*CAP
1 io_oeb[28] 0.00289526
2 *419:io_oeb_high[6] 0.000713077
3 *59:16 0.0826998
4 *59:14 0.0798046
5 *59:12 0.0287947
6 *59:10 0.0295078
7 *59:12 *67:12 0.0213962
8 *59:12 *68:17 0.0206436
9 *59:12 *89:14 0.0198421
10 *59:16 *102:13 0.0118938
11 *419:extInt[1] *59:16 0.0246243
12 *25:13 *59:12 0.121987
13 *29:13 *59:12 0.0155205
14 *30:9 *59:16 0.00581062
15 *30:13 *59:12 0.0167988
16 *31:13 *59:12 0.0170787
*RES
1 *419:io_oeb_high[6] *59:10 17.7083 
2 *59:10 *59:12 197.941 
3 *59:12 *59:14 4.5 
4 *59:14 *59:16 712.768 
5 *59:16 io_oeb[28] 27.224 
*END

*D_NET *60 0.851559
*CONN
*P io_oeb[29] O
*I *419:io_oeb_high[7] O *D J1Asic
*CAP