*SPEF "ieee 1481-1999"
*DESIGN "user_project_wrapper"
*DATE "11:11:11 Fri 11 11, 1111"
*VENDOR "OpenRCX"
*PROGRAM "Parallel Extraction"
*VERSION "1.0"
*DESIGN_FLOW "NAME_SCOPE LOCAL" "PIN_CAP NONE"
*DIVIDER /
*DELIMITER :
*BUS_DELIMITER []
*T_UNIT 1 NS
*C_UNIT 1 PF
*R_UNIT 1 OHM
*L_UNIT 1 HENRY

*NAME_MAP
*1 io_in[0]
*2 io_in[10]
*3 io_in[11]
*4 io_in[12]
*5 io_in[13]
*6 io_in[14]
*7 io_in[15]
*8 io_in[16]
*9 io_in[17]
*10 io_in[18]
*11 io_in[19]
*12 io_in[1]
*13 io_in[20]
*14 io_in[21]
*15 io_in[22]
*16 io_in[23]
*17 io_in[24]
*18 io_in[25]
*19 io_in[26]
*20 io_in[27]
*21 io_in[28]
*22 io_in[29]
*23 io_in[2]
*24 io_in[30]
*25 io_in[31]
*26 io_in[32]
*27 io_in[33]
*28 io_in[34]
*29 io_in[35]
*30 io_in[36]
*31 io_in[37]
*32 io_in[3]
*33 io_in[4]
*34 io_in[5]
*35 io_in[6]
*36 io_in[7]
*37 io_in[8]
*38 io_in[9]
*39 io_oeb[0]
*40 io_oeb[10]
*41 io_oeb[11]
*42 io_oeb[12]
*43 io_oeb[13]
*44 io_oeb[14]
*45 io_oeb[15]
*46 io_oeb[16]
*47 io_oeb[17]
*48 io_oeb[18]
*49 io_oeb[19]
*50 io_oeb[1]
*51 io_oeb[20]
*52 io_oeb[21]
*53 io_oeb[22]
*54 io_oeb[23]
*55 io_oeb[24]
*56 io_oeb[25]
*57 io_oeb[26]
*58 io_oeb[27]
*59 io_oeb[28]
*60 io_oeb[29]
*61 io_oeb[2]
*62 io_oeb[30]
*63 io_oeb[31]
*64 io_oeb[32]
*65 io_oeb[33]
*66 io_oeb[34]
*67 io_oeb[35]
*68 io_oeb[36]
*69 io_oeb[37]
*70 io_oeb[3]
*71 io_oeb[4]
*72 io_oeb[5]
*73 io_oeb[6]
*74 io_oeb[7]
*75 io_oeb[8]
*76 io_oeb[9]
*77 io_out[0]
*78 io_out[10]
*79 io_out[11]
*80 io_out[12]
*81 io_out[13]
*82 io_out[14]
*83 io_out[15]
*84 io_out[16]
*85 io_out[17]
*86 io_out[18]
*87 io_out[19]
*88 io_out[1]
*89 io_out[20]
*90 io_out[21]
*91 io_out[22]
*92 io_out[23]
*93 io_out[24]
*94 io_out[25]
*95 io_out[26]
*96 io_out[27]
*97 io_out[28]
*98 io_out[29]
*99 io_out[2]
*100 io_out[30]
*101 io_out[31]
*102 io_out[32]
*103 io_out[33]
*104 io_out[34]
*105 io_out[35]
*106 io_out[36]
*107 io_out[37]
*108 io_out[3]
*109 io_out[4]
*110 io_out[5]
*111 io_out[6]
*112 io_out[7]
*113 io_out[8]
*114 io_out[9]
*115 la_data_in[0]
*116 la_data_in[10]
*117 la_data_in[11]
*118 la_data_in[12]
*119 la_data_in[13]
*120 la_data_in[14]
*121 la_data_in[15]
*122 la_data_in[16]
*123 la_data_in[17]
*124 la_data_in[18]
*125 la_data_in[19]
*126 la_data_in[1]
*127 la_data_in[20]
*128 la_data_in[21]
*129 la_data_in[22]
*130 la_data_in[23]
*131 la_data_in[24]
*132 la_data_in[25]
*133 la_data_in[26]
*134 la_data_in[27]
*135 la_data_in[28]
*136 la_data_in[29]
*137 la_data_in[2]
*138 la_data_in[30]
*139 la_data_in[31]
*140 la_data_in[32]
*141 la_data_in[33]
*142 la_data_in[34]
*143 la_data_in[35]
*144 la_data_in[36]
*145 la_data_in[37]
*146 la_data_in[38]
*147 la_data_in[39]
*148 la_data_in[3]
*149 la_data_in[40]
*150 la_data_in[41]
*151 la_data_in[42]
*152 la_data_in[43]
*153 la_data_in[44]
*154 la_data_in[45]
*155 la_data_in[46]
*156 la_data_in[47]
*157 la_data_in[48]
*158 la_data_in[49]
*159 la_data_in[4]
*160 la_data_in[50]
*161 la_data_in[51]
*162 la_data_in[52]
*163 la_data_in[53]
*164 la_data_in[54]
*165 la_data_in[55]
*166 la_data_in[56]
*167 la_data_in[57]
*168 la_data_in[58]
*169 la_data_in[59]
*170 la_data_in[5]
*171 la_data_in[60]
*172 la_data_in[61]
*173 la_data_in[62]
*174 la_data_in[63]
*175 la_data_in[6]
*176 la_data_in[7]
*177 la_data_in[8]
*178 la_data_in[9]
*179 la_data_out[0]
*180 la_data_out[10]
*181 la_data_out[11]
*182 la_data_out[12]
*183 la_data_out[13]
*184 la_data_out[14]
*185 la_data_out[15]
*186 la_data_out[16]
*187 la_data_out[17]
*188 la_data_out[18]
*189 la_data_out[19]
*190 la_data_out[1]
*191 la_data_out[20]
*192 la_data_out[21]
*193 la_data_out[22]
*194 la_data_out[23]
*195 la_data_out[24]
*196 la_data_out[25]
*197 la_data_out[26]
*198 la_data_out[27]
*199 la_data_out[28]
*200 la_data_out[29]
*201 la_data_out[2]
*202 la_data_out[30]
*203 la_data_out[31]
*204 la_data_out[32]
*205 la_data_out[33]
*206 la_data_out[34]
*207 la_data_out[35]
*208 la_data_out[36]
*209 la_data_out[37]
*210 la_data_out[38]
*211 la_data_out[39]
*212 la_data_out[3]
*213 la_data_out[40]
*214 la_data_out[41]
*215 la_data_out[42]
*216 la_data_out[43]
*217 la_data_out[44]
*218 la_data_out[45]
*219 la_data_out[46]
*220 la_data_out[47]
*221 la_data_out[48]
*222 la_data_out[49]
*223 la_data_out[4]
*224 la_data_out[50]
*225 la_data_out[51]
*226 la_data_out[52]
*227 la_data_out[53]
*228 la_data_out[54]
*229 la_data_out[55]
*230 la_data_out[56]
*231 la_data_out[57]
*232 la_data_out[58]
*233 la_data_out[59]
*234 la_data_out[5]
*235 la_data_out[60]
*236 la_data_out[61]
*237 la_data_out[62]
*238 la_data_out[63]
*239 la_data_out[6]
*240 la_data_out[7]
*241 la_data_out[8]
*242 la_data_out[9]
*243 la_oenb[0]
*244 la_oenb[10]
*245 la_oenb[11]
*246 la_oenb[12]
*247 la_oenb[13]
*248 la_oenb[14]
*249 la_oenb[15]
*250 la_oenb[16]
*251 la_oenb[17]
*252 la_oenb[18]
*253 la_oenb[19]
*254 la_oenb[1]
*255 la_oenb[20]
*256 la_oenb[21]
*257 la_oenb[22]
*258 la_oenb[23]
*259 la_oenb[24]
*260 la_oenb[25]
*261 la_oenb[26]
*262 la_oenb[27]
*263 la_oenb[28]
*264 la_oenb[29]
*265 la_oenb[2]
*266 la_oenb[30]
*267 la_oenb[31]
*268 la_oenb[32]
*269 la_oenb[33]
*270 la_oenb[34]
*271 la_oenb[35]
*272 la_oenb[36]
*273 la_oenb[37]
*274 la_oenb[38]
*275 la_oenb[39]
*276 la_oenb[3]
*277 la_oenb[40]
*278 la_oenb[41]
*279 la_oenb[42]
*280 la_oenb[43]
*281 la_oenb[44]
*282 la_oenb[45]
*283 la_oenb[46]
*284 la_oenb[47]
*285 la_oenb[48]
*286 la_oenb[49]
*287 la_oenb[4]
*288 la_oenb[50]
*289 la_oenb[51]
*290 la_oenb[52]
*291 la_oenb[53]
*292 la_oenb[54]
*293 la_oenb[55]
*294 la_oenb[56]
*295 la_oenb[57]
*296 la_oenb[58]
*297 la_oenb[59]
*298 la_oenb[5]
*299 la_oenb[60]
*300 la_oenb[61]
*301 la_oenb[62]
*302 la_oenb[63]
*303 la_oenb[6]
*304 la_oenb[7]
*305 la_oenb[8]
*306 la_oenb[9]
*307 user_clock2
*308 user_irq[0]
*309 user_irq[1]
*310 user_irq[2]
*313 wb_clk_i
*314 wb_rst_i
*315 wbs_ack_o
*316 wbs_adr_i[0]
*317 wbs_adr_i[10]
*318 wbs_adr_i[11]
*319 wbs_adr_i[12]
*320 wbs_adr_i[13]
*321 wbs_adr_i[14]
*322 wbs_adr_i[15]
*323 wbs_adr_i[16]
*324 wbs_adr_i[17]
*325 wbs_adr_i[18]
*326 wbs_adr_i[19]
*327 wbs_adr_i[1]
*328 wbs_adr_i[20]
*329 wbs_adr_i[21]
*330 wbs_adr_i[22]
*331 wbs_adr_i[23]
*332 wbs_adr_i[24]
*333 wbs_adr_i[25]
*334 wbs_adr_i[26]
*335 wbs_adr_i[27]
*336 wbs_adr_i[28]
*337 wbs_adr_i[29]
*338 wbs_adr_i[2]
*339 wbs_adr_i[30]
*340 wbs_adr_i[31]
*341 wbs_adr_i[3]
*342 wbs_adr_i[4]
*343 wbs_adr_i[5]
*344 wbs_adr_i[6]
*345 wbs_adr_i[7]
*346 wbs_adr_i[8]
*347 wbs_adr_i[9]
*348 wbs_cyc_i
*349 wbs_dat_i[0]
*350 wbs_dat_i[10]
*351 wbs_dat_i[11]
*352 wbs_dat_i[12]
*353 wbs_dat_i[13]
*354 wbs_dat_i[14]
*355 wbs_dat_i[15]
*356 wbs_dat_i[16]
*357 wbs_dat_i[17]
*358 wbs_dat_i[18]
*359 wbs_dat_i[19]
*360 wbs_dat_i[1]
*361 wbs_dat_i[20]
*362 wbs_dat_i[21]
*363 wbs_dat_i[22]
*364 wbs_dat_i[23]
*365 wbs_dat_i[24]
*366 wbs_dat_i[25]
*367 wbs_dat_i[26]
*368 wbs_dat_i[27]
*369 wbs_dat_i[28]
*370 wbs_dat_i[29]
*371 wbs_dat_i[2]
*372 wbs_dat_i[30]
*373 wbs_dat_i[31]
*374 wbs_dat_i[3]
*375 wbs_dat_i[4]
*376 wbs_dat_i[5]
*377 wbs_dat_i[6]
*378 wbs_dat_i[7]
*379 wbs_dat_i[8]
*380 wbs_dat_i[9]
*381 wbs_dat_o[0]
*382 wbs_dat_o[10]
*383 wbs_dat_o[11]
*384 wbs_dat_o[12]
*385 wbs_dat_o[13]
*386 wbs_dat_o[14]
*387 wbs_dat_o[15]
*388 wbs_dat_o[16]
*389 wbs_dat_o[17]
*390 wbs_dat_o[18]
*391 wbs_dat_o[19]
*392 wbs_dat_o[1]
*393 wbs_dat_o[20]
*394 wbs_dat_o[21]
*395 wbs_dat_o[22]
*396 wbs_dat_o[23]
*397 wbs_dat_o[24]
*398 wbs_dat_o[25]
*399 wbs_dat_o[26]
*400 wbs_dat_o[27]
*401 wbs_dat_o[28]
*402 wbs_dat_o[29]
*403 wbs_dat_o[2]
*404 wbs_dat_o[30]
*405 wbs_dat_o[31]
*406 wbs_dat_o[3]
*407 wbs_dat_o[4]
*408 wbs_dat_o[5]
*409 wbs_dat_o[6]
*410 wbs_dat_o[7]
*411 wbs_dat_o[8]
*412 wbs_dat_o[9]
*413 wbs_sel_i[0]
*414 wbs_sel_i[1]
*415 wbs_sel_i[2]
*416 wbs_sel_i[3]
*417 wbs_stb_i
*418 wbs_we_i
*419 j1a

*PORTS
io_in[0] I
io_in[10] I
io_in[11] I
io_in[12] I
io_in[13] I
io_in[14] I
io_in[15] I
io_in[16] I
io_in[17] I
io_in[18] I
io_in[19] I
io_in[1] I
io_in[20] I
io_in[21] I
io_in[22] I
io_in[23] I
io_in[24] I
io_in[25] I
io_in[26] I
io_in[27] I
io_in[28] I
io_in[29] I
io_in[2] I
io_in[30] I
io_in[31] I
io_in[32] I
io_in[33] I
io_in[34] I
io_in[35] I
io_in[36] I
io_in[37] I
io_in[3] I
io_in[4] I
io_in[5] I
io_in[6] I
io_in[7] I
io_in[8] I
io_in[9] I
io_oeb[0] O
io_oeb[10] O
io_oeb[11] O
io_oeb[12] O
io_oeb[13] O
io_oeb[14] O
io_oeb[15] O
io_oeb[16] O
io_oeb[17] O
io_oeb[18] O
io_oeb[19] O
io_oeb[1] O
io_oeb[20] O
io_oeb[21] O
io_oeb[22] O
io_oeb[23] O
io_oeb[24] O
io_oeb[25] O
io_oeb[26] O
io_oeb[27] O
io_oeb[28] O
io_oeb[29] O
io_oeb[2] O
io_oeb[30] O
io_oeb[31] O
io_oeb[32] O
io_oeb[33] O
io_oeb[34] O
io_oeb[35] O
io_oeb[36] O
io_oeb[37] O
io_oeb[3] O
io_oeb[4] O
io_oeb[5] O
io_oeb[6] O
io_oeb[7] O
io_oeb[8] O
io_oeb[9] O
io_out[0] O
io_out[10] O
io_out[11] O
io_out[12] O
io_out[13] O
io_out[14] O
io_out[15] O
io_out[16] O
io_out[17] O
io_out[18] O
io_out[19] O
io_out[1] O
io_out[20] O
io_out[21] O
io_out[22] O
io_out[23] O
io_out[24] O
io_out[25] O
io_out[26] O
io_out[27] O
io_out[28] O
io_out[29] O
io_out[2] O
io_out[30] O
io_out[31] O
io_out[32] O
io_out[33] O
io_out[34] O
io_out[35] O
io_out[36] O
io_out[37] O
io_out[3] O
io_out[4] O
io_out[5] O
io_out[6] O
io_out[7] O
io_out[8] O
io_out[9] O
la_data_in[0] I
la_data_in[10] I
la_data_in[11] I
la_data_in[12] I
la_data_in[13] I
la_data_in[14] I
la_data_in[15] I
la_data_in[16] I
la_data_in[17] I
la_data_in[18] I
la_data_in[19] I
la_data_in[1] I
la_data_in[20] I
la_data_in[21] I
la_data_in[22] I
la_data_in[23] I
la_data_in[24] I
la_data_in[25] I
la_data_in[26] I
la_data_in[27] I
la_data_in[28] I
la_data_in[29] I
la_data_in[2] I
la_data_in[30] I
la_data_in[31] I
la_data_in[32] I
la_data_in[33] I
la_data_in[34] I
la_data_in[35] I
la_data_in[36] I
la_data_in[37] I
la_data_in[38] I
la_data_in[39] I
la_data_in[3] I
la_data_in[40] I
la_data_in[41] I
la_data_in[42] I
la_data_in[43] I
la_data_in[44] I
la_data_in[45] I
la_data_in[46] I
la_data_in[47] I
la_data_in[48] I
la_data_in[49] I
la_data_in[4] I
la_data_in[50] I
la_data_in[51] I
la_data_in[52] I
la_data_in[53] I
la_data_in[54] I
la_data_in[55] I
la_data_in[56] I
la_data_in[57] I
la_data_in[58] I
la_data_in[59] I
la_data_in[5] I
la_data_in[60] I
la_data_in[61] I
la_data_in[62] I
la_data_in[63] I
la_data_in[6] I
la_data_in[7] I
la_data_in[8] I
la_data_in[9] I
la_data_out[0] O
la_data_out[10] O
la_data_out[11] O
la_data_out[12] O
la_data_out[13] O
la_data_out[14] O
la_data_out[15] O
la_data_out[16] O
la_data_out[17] O
la_data_out[18] O
la_data_out[19] O
la_data_out[1] O
la_data_out[20] O
la_data_out[21] O
la_data_out[22] O
la_data_out[23] O
la_data_out[24] O
la_data_out[25] O
la_data_out[26] O
la_data_out[27] O
la_data_out[28] O
la_data_out[29] O
la_data_out[2] O
la_data_out[30] O
la_data_out[31] O
la_data_out[32] O
la_data_out[33] O
la_data_out[34] O
la_data_out[35] O
la_data_out[36] O
la_data_out[37] O
la_data_out[38] O
la_data_out[39] O
la_data_out[3] O
la_data_out[40] O
la_data_out[41] O
la_data_out[42] O
la_data_out[43] O
la_data_out[44] O
la_data_out[45] O
la_data_out[46] O
la_data_out[47] O
la_data_out[48] O
la_data_out[49] O
la_data_out[4] O
la_data_out[50] O
la_data_out[51] O
la_data_out[52] O
la_data_out[53] O
la_data_out[54] O
la_data_out[55] O
la_data_out[56] O
la_data_out[57] O
la_data_out[58] O
la_data_out[59] O
la_data_out[5] O
la_data_out[60] O
la_data_out[61] O
la_data_out[62] O
la_data_out[63] O
la_data_out[6] O
la_data_out[7] O
la_data_out[8] O
la_data_out[9] O
la_oenb[0] I
la_oenb[10] I
la_oenb[11] I
la_oenb[12] I
la_oenb[13] I
la_oenb[14] I
la_oenb[15] I
la_oenb[16] I
la_oenb[17] I
la_oenb[18] I
la_oenb[19] I
la_oenb[1] I
la_oenb[20] I
la_oenb[21] I
la_oenb[22] I
la_oenb[23] I
la_oenb[24] I
la_oenb[25] I
la_oenb[26] I
la_oenb[27] I
la_oenb[28] I
la_oenb[29] I
la_oenb[2] I
la_oenb[30] I
la_oenb[31] I
la_oenb[32] I
la_oenb[33] I
la_oenb[34] I
la_oenb[35] I
la_oenb[36] I
la_oenb[37] I
la_oenb[38] I
la_oenb[39] I
la_oenb[3] I
la_oenb[40] I
la_oenb[41] I
la_oenb[42] I
la_oenb[43] I
la_oenb[44] I
la_oenb[45] I
la_oenb[46] I
la_oenb[47] I
la_oenb[48] I
la_oenb[49] I
la_oenb[4] I
la_oenb[50] I
la_oenb[51] I
la_oenb[52] I
la_oenb[53] I
la_oenb[54] I
la_oenb[55] I
la_oenb[56] I
la_oenb[57] I
la_oenb[58] I
la_oenb[59] I
la_oenb[5] I
la_oenb[60] I
la_oenb[61] I
la_oenb[62] I
la_oenb[63] I
la_oenb[6] I
la_oenb[7] I
la_oenb[8] I
la_oenb[9] I
user_clock2 I
user_irq[0] O
user_irq[1] O
user_irq[2] O
wb_clk_i I
wb_rst_i I
wbs_ack_o O
wbs_adr_i[0] I
wbs_adr_i[10] I
wbs_adr_i[11] I
wbs_adr_i[12] I
wbs_adr_i[13] I
wbs_adr_i[14] I
wbs_adr_i[15] I
wbs_adr_i[16] I
wbs_adr_i[17] I
wbs_adr_i[18] I
wbs_adr_i[19] I
wbs_adr_i[1] I
wbs_adr_i[20] I
wbs_adr_i[21] I
wbs_adr_i[22] I
wbs_adr_i[23] I
wbs_adr_i[24] I
wbs_adr_i[25] I
wbs_adr_i[26] I
wbs_adr_i[27] I
wbs_adr_i[28] I
wbs_adr_i[29] I
wbs_adr_i[2] I
wbs_adr_i[30] I
wbs_adr_i[31] I
wbs_adr_i[3] I
wbs_adr_i[4] I
wbs_adr_i[5] I
wbs_adr_i[6] I
wbs_adr_i[7] I
wbs_adr_i[8] I
wbs_adr_i[9] I
wbs_cyc_i I
wbs_dat_i[0] I
wbs_dat_i[10] I
wbs_dat_i[11] I
wbs_dat_i[12] I
wbs_dat_i[13] I
wbs_dat_i[14] I
wbs_dat_i[15] I
wbs_dat_i[16] I
wbs_dat_i[17] I
wbs_dat_i[18] I
wbs_dat_i[19] I
wbs_dat_i[1] I
wbs_dat_i[20] I
wbs_dat_i[21] I
wbs_dat_i[22] I
wbs_dat_i[23] I
wbs_dat_i[24] I
wbs_dat_i[25] I
wbs_dat_i[26] I
wbs_dat_i[27] I
wbs_dat_i[28] I
wbs_dat_i[29] I
wbs_dat_i[2] I
wbs_dat_i[30] I
wbs_dat_i[31] I
wbs_dat_i[3] I
wbs_dat_i[4] I
wbs_dat_i[5] I
wbs_dat_i[6] I
wbs_dat_i[7] I
wbs_dat_i[8] I
wbs_dat_i[9] I
wbs_dat_o[0] O
wbs_dat_o[10] O
wbs_dat_o[11] O
wbs_dat_o[12] O
wbs_dat_o[13] O
wbs_dat_o[14] O
wbs_dat_o[15] O
wbs_dat_o[16] O
wbs_dat_o[17] O
wbs_dat_o[18] O
wbs_dat_o[19] O
wbs_dat_o[1] O
wbs_dat_o[20] O
wbs_dat_o[21] O
wbs_dat_o[22] O
wbs_dat_o[23] O
wbs_dat_o[24] O
wbs_dat_o[25] O
wbs_dat_o[26] O
wbs_dat_o[27] O
wbs_dat_o[28] O
wbs_dat_o[29] O
wbs_dat_o[2] O
wbs_dat_o[30] O
wbs_dat_o[31] O
wbs_dat_o[3] O
wbs_dat_o[4] O
wbs_dat_o[5] O
wbs_dat_o[6] O
wbs_dat_o[7] O
wbs_dat_o[8] O
wbs_dat_o[9] O
wbs_sel_i[0] I
wbs_sel_i[1] I
wbs_sel_i[2] I
wbs_sel_i[3] I
wbs_stb_i I
wbs_we_i I

*D_NET *15 0.269988
*CONN
*P io_in[22] I
*I *419:tck I *D J1Asic
*CAP
1 io_in[22] 0.00141595
2 *419:tck 0.000355929
3 *15:17 0.00312633
4 *15:15 0.0027704
5 *15:13 0.121507
6 *15:11 0.122923
7 *419:tck *419:tdi 1.74921e-05
8 *15:11 *53:20 0.000215214
9 *15:17 *17:13 0
10 *15:17 *52:10 0.0176567
*RES
1 io_in[22] *15:11 21.22 
2 *15:11 *15:13 1087.74 
3 *15:13 *15:15 4.5 
4 *15:15 *15:17 46.904 
5 *15:17 *419:tck 15.268 
*END

*D_NET *16 0.23872
*CONN
*P io_in[23] I
*I *419:tms I *D J1Asic
*CAP
1 io_in[23] 0.00113656
2 *419:tms 0.000100571
3 *16:13 0.0616171
4 *16:11 0.0615166
5 *16:9 0.00911632
6 *16:7 0.0102529
7 *16:13 io_oeb[23] 0.00915819
8 *16:13 *419:extInt[0] 0.0713054
9 *16:13 *17:9 0
10 *16:13 *28:9 0.00442172
11 *16:13 *62:13 0.00402323
12 *16:13 *64:10 0.00607158
*RES
1 io_in[23] *16:7 14.12 
2 *16:7 *16:9 80.808 
3 *16:9 *16:11 4.5 
4 *16:11 *16:13 833.976 
5 *16:13 *419:tms 5.176 
*END

*D_NET *17 0.648411
*CONN
*P io_in[24] I
*I *419:tdi I *D J1Asic
*CAP
1 io_in[24] 0.0024266
2 *419:tdi 0.000560953
3 *17:13 0.0161625
4 *17:11 0.0156015
5 *17:9 0.0745572
6 *17:7 0.0769838
7 *17:9 io_oeb[23] 0.137486
8 *17:9 *26:9 0.0386778
9 *17:9 *62:13 0.217144
10 *17:13 *18:13 0.0152271
11 *17:13 *21:13 0.0367586
12 *17:13 *51:27 0.0168067
13 *17:13 *52:10 0
14 *419:tck *419:tdi 1.74921e-05
15 *15:17 *17:13 0
16 *16:13 *17:9 0
*RES
1 io_in[24] *17:7 24.104 
2 *17:7 *17:9 1080.25 
3 *17:9 *17:11 4.5 
4 *17:11 *17:13 255.528 
5 *17:13 *419:tdi 17.14 
*END

*D_NET *18 0.486269
*CONN
*P io_in[25] I
*I *419:rx I *D J1Asic
*CAP
1 io_in[25] 0.00134808
2 *419:rx 0.000668274
3 *18:13 0.0442536
4 *18:11 0.0435853
5 *18:9 0.154604
6 *18:7 0.155952
7 *18:9 *29:15 0.00114825
8 *18:13 *21:13 0.0194526
9 *18:13 *24:13 0.0158042
10 *18:13 *25:13 0.0197989
11 *18:13 *51:27 0.0144269
12 *17:13 *18:13 0.0152271
*RES
1 io_in[25] *18:7 15.368 
2 *18:7 *18:9 1001.06 
3 *18:9 *18:11 4.5 
4 *18:11 *18:13 187.517 
5 *18:13 *419:rx 17.7083 
*END

*D_NET *19 0.248996
*CONN
*P io_in[26] I
*I *419:extInt[0] I *D J1Asic
*CAP
1 io_in[26] 0.00278238
2 *419:extInt[0] 0.0587448
3 *19:7 0.0615272
4 *419:extInt[0] *419:extInt[1] 0.00075383
5 *419:extInt[0] *20:9 0.0473631
6 *419:extInt[0] *28:9 0.00651874
7 *16:13 *419:extInt[0] 0.0713054
*RES
1 io_in[26] *19:7 26.184 
2 *19:7 *419:extInt[0] 926.276 
*END

*D_NET *20 0.213903
*CONN
*P io_in[27] I
*I *419:extInt[1] I *D J1Asic
*CAP
1 io_in[27] 0.00355032
2 *419:extInt[1] 0.0034194
3 *20:9 0.0793408
4 *20:7 0.0794717
5 *419:extInt[1] *314:7 3.55785e-06
6 *419:extInt[0] *419:extInt[1] 0.00075383
7 *419:extInt[0] *20:9 0.0473631
*RES
1 io_in[27] *20:7 27.224 
2 *20:7 *20:9 817.232 
3 *20:9 *419:extInt[1] 30.836 
*END

*D_NET *21 0.615663
*CONN
*P io_in[28] I
*I *419:extInt[2] I *D J1Asic
*CAP
1 io_in[28] 0.00157956
2 *419:extInt[2] 0.000627866
3 *21:13 0.00306198
4 *21:11 0.00243411
5 *21:9 0.0976088
6 *21:7 0.0991884
7 *21:9 io_oeb[37] 0.00193851
8 *21:9 *29:9 0.0691494
9 *21:9 *29:15 0.00156331
10 *21:9 *58:13 0
11 *21:9 *104:10 0
12 *21:9 *105:10 0
13 *21:13 *25:13 0.184834
14 *21:13 *51:27 0.0974662
15 *17:13 *21:13 0.0367586
16 *18:13 *21:13 0.0194526
*RES
1 io_in[28] *21:7 14.744 
2 *21:7 *21:9 765.336 
3 *21:9 *21:11 4.5 
4 *21:11 *21:13 465.816 
5 *21:13 *419:extInt[2] 17.556 
*END

*D_NET *22 0.592053
*CONN
*P io_in[29] I
*I *419:boardClkLocked I *D J1Asic
*CAP
1 io_in[29] 0.00167526
2 *419:boardClkLocked 0.000226053
3 *22:13 0.00102889
4 *22:11 0.000802838
5 *22:9 0.050888
6 *22:7 0.0525632
7 *22:9 *25:9 0.206641
8 *22:9 *56:19 0.059053
9 *22:9 *101:13 0.000903064
10 *22:13 *29:17 3.19064e-05
11 *22:13 *30:13 0.000433457
12 *22:13 *31:13 0.107454
13 *22:13 *53:12 0.00156673
14 *22:13 *66:9 0.108785
*RES
1 io_in[29] *22:7 17.864 
2 *22:7 *22:9 692.744 
3 *22:9 *22:11 4.5 
4 *22:11 *22:13 273 
5 *22:13 *419:boardClkLocked 5.592 
*END

*D_NET *24 0.556049
*CONN
*P io_in[30] I
*I *419:pmodA_read[0] I *D J1Asic
*CAP
1 io_in[30] 0.00209161
2 *419:pmodA_read[0] 0.000621412
3 *24:13 0.0296787
4 *24:11 0.0290573
5 *24:9 0.0572804
6 *24:7 0.059372
7 *24:9 *27:9 0
8 *24:9 *102:13 0.155865
9 *24:13 *25:13 0.206279
10 *18:13 *24:13 0.0158042
*RES
1 io_in[30] *24:7 20.984 
2 *24:7 *24:9 607.672 
3 *24:9 *24:11 4.5 
4 *24:11 *24:13 515.736 
5 *24:13 *419:pmodA_read[0] 17.764 
*END

*D_NET *25 0.85108
*CONN
*P io_in[31] I
*I *419:pmodA_read[1] I *D J1Asic
*CAP
1 io_in[31] 0.00176601
2 *419:pmodA_read[1] 0.000577231
3 *25:13 0.00375706
4 *25:11 0.00317983
5 *25:9 0.00195024
6 *25:7 0.00371625
7 *25:9 *56:19 0.0182586
8 *25:9 *101:13 0.196399
9 *25:13 *51:27 0.00392403
10 *18:13 *25:13 0.0197989
11 *21:13 *25:13 0.184834
12 *22:9 *25:9 0.206641
13 *24:13 *25:13 0.206279
*RES
1 io_in[31] *25:7 18.072 
2 *25:7 *25:9 529.256 
3 *25:9 *25:11 4.5 
4 *25:11 *25:13 521.144 
5 *25:13 *419:pmodA_read[1] 17.556 
*END

*D_NET *26 0.533704
*CONN
*P io_in[32] I
*I *419:pmodA_read[2] I *D J1Asic
*CAP
1 io_in[32] 0.00265908
2 *419:pmodA_read[2] 0.000189373
3 *26:13 0.0453829
4 *26:11 0.0451936
5 *26:9 0.0404297
6 *26:7 0.0430888
7 *26:9 *60:19 0.0787241
8 *26:9 *62:13 0.00544263
9 *26:9 *64:10 0.00664482
10 *26:13 *28:13 0.00710204
11 *26:13 *29:17 0.00761897
12 *26:13 *30:13 0.0065198
13 *26:13 *31:13 0.00585149
14 *26:13 *53:12 0.142246
15 *26:13 *56:15 0
16 *26:13 *60:15 0
17 *26:13 *64:6 0.0228604
18 *26:13 *68:6 0.0177609
19 *26:13 *105:6 0.0168776
20 *26:13 *314:17 0.000433833
21 *17:9 *26:9 0.0386778
*RES
1 io_in[32] *26:7 24.104 
2 *26:7 *26:9 455.702 
3 *26:9 *26:11 4.5 
4 *26:11 *26:13 215.492 
5 *26:13 *419:pmodA_read[2] 14.618 
*END

*D_NET *27 0.546409
*CONN
*P io_in[33] I
*I *419:pmodA_read[3] I *D J1Asic
*CAP
1 io_in[33] 0.00194409
2 *419:pmodA_read[3] 0.00052301
3 *27:13 0.00185452
4 *27:11 0.00133151
5 *27:9 0.0265743
6 *27:7 0.0285184
7 *27:9 *63:13 0.0619179
8 *27:9 *101:13 8.16884e-06
9 *27:9 *102:13 0
10 *27:13 *56:15 0.008196
11 *27:13 *60:15 0.00139001
12 *27:13 *69:9 0.000284592
13 *27:13 *90:15 0.00967265
14 *27:13 *100:9 0.201434
15 *27:13 *101:9 0.000859164
16 *27:13 *102:9 0.201901
17 *24:9 *27:9 0
*RES
1 io_in[33] *27:7 19.112 
2 *27:7 *27:9 380.744 
3 *27:9 *27:11 4.5 
4 *27:11 *27:13 510.12 
5 *27:13 *419:pmodA_read[3] 8.088 
*END

*D_NET *28 0.508126
*CONN
*P io_in[34] I
*I *419:pmodA_read[4] I *D J1Asic
*CAP
1 io_in[34] 0.00286124
2 *419:pmodA_read[4] 7.23999e-05
3 *28:13 0.00121603
4 *28:11 0.00114363
5 *28:9 0.0157605
6 *28:7 0.0186217
7 *419:pmodA_read[4] *62:7 6.77104e-06
8 *28:9 *64:10 0.043065
9 *28:9 *100:15 0.0137033
10 *28:13 *419:pmodA_read[5] 0.00159896
11 *28:13 *29:17 0.18971
12 *28:13 *30:13 0.190909
13 *28:13 *53:12 0.0106411
14 *28:13 *64:6 0.000139461
15 *28:13 *66:9 0.000635098
16 *419:extInt[0] *28:9 0.00651874
17 *16:13 *28:9 0.00442172
18 *26:13 *28:13 0.00710204
*RES
1 io_in[34] *28:7 24.936 
2 *28:7 *28:9 299 
3 *28:9 *28:11 4.5 
4 *28:11 *28:13 485.576 
5 *28:13 *419:pmodA_read[4] 4.968 
*END

*D_NET *29 0.431153
*CONN
*P io_in[35] I
*I *419:pmodA_read[5] I *D J1Asic
*CAP
1 io_in[35] 0.00141188
2 *419:pmodA_read[5] 9.64388e-05
3 *29:17 0.00300528
4 *29:15 0.00626711
5 *29:9 0.0191789
6 *29:7 0.0172325
7 *419:pmodA_read[5] *53:12 0.000383732
8 *419:pmodA_read[5] *64:6 0.00373501
9 *29:15 io_oeb[37] 0.00137873
10 *29:17 *30:13 0.000949751
11 *29:17 *53:12 0.0120662
12 *29:17 *64:6 0.0735541
13 *29:17 *66:9 0.000168336
14 *29:17 *68:6 0.00087799
15 *29:17 *314:17 0.020027
16 *18:9 *29:15 0.00114825
17 *21:9 *29:9 0.0691494
18 *21:9 *29:15 0.00156331
19 *22:13 *29:17 3.19064e-05
20 *26:13 *29:17 0.00761897
21 *28:13 *419:pmodA_read[5] 0.00159896
22 *28:13 *29:17 0.18971
*RES
1 io_in[35] *29:7 14.952 
2 *29:7 *29:9 188.24 
3 *29:9 *29:15 37.052 
4 *29:15 *29:17 484.64 
5 *29:17 *419:pmodA_read[5] 14.172 
*END

*D_NET *30 0.521523
*CONN
*P io_in[36] I
*I *419:pmodA_read[6] I *D J1Asic
*CAP
1 io_in[36] 0.00189821
2 *419:pmodA_read[6] 0.000125138
3 *30:13 0.00135696
4 *30:11 0.00123182
5 *30:9 0.000213909
6 *30:7 0.00211212
7 *419:pmodA_read[6] *419:pmodA_read[7] 6.90368e-06
8 *30:9 *56:19 0.00381233
9 *30:9 *63:13 0.0553082
10 *30:9 *101:13 0.0553174
11 *30:13 *31:13 0.191749
12 *30:13 *53:12 0.00943054
13 *30:13 *66:9 0.000148497
14 *22:13 *30:13 0.000433457
15 *26:13 *30:13 0.0065198
16 *28:13 *30:13 0.190909
17 *29:17 *30:13 0.000949751
*RES
1 io_in[36] *30:7 18.488 
2 *30:7 *30:9 141.96 
3 *30:9 *30:11 4.5 
4 *30:11 *30:13 484.536 
5 *30:13 *419:pmodA_read[6] 5.176 
*END

*D_NET *31 0.392922
*CONN
*P io_in[37] I
*I *419:pmodA_read[7] I *D J1Asic
*CAP
1 io_in[37] 0.00242222
2 *419:pmodA_read[7] 0.000169774
3 *31:13 0.00178913
4 *31:11 0.00161936
5 *31:9 0.00546699
6 *31:7 0.00788921
7 *31:9 *102:13 0.0232619
8 *31:13 *53:12 0.00866201
9 *31:13 *66:9 0.03658
10 *419:pmodA_read[6] *419:pmodA_read[7] 6.90368e-06
11 *22:13 *31:13 0.107454
12 *26:13 *31:13 0.00585149
13 *30:13 *31:13 0.191749
*RES
1 io_in[37] *31:7 21.4 
2 *31:7 *31:9 63.544 
3 *31:9 *31:11 4.5 
4 *31:11 *31:13 480.376 
5 *31:13 *419:pmodA_read[7] 5.384 
*END

*D_NET *51 0.752938
*CONN
*P io_oeb[20] O
*I *419:io_oeb_low[0] O *D J1Asic
*CAP
1 io_oeb[20] 0.00111232
2 *419:io_oeb_low[0] 0.000360753
3 *51:229 0.00358308
4 *51:225 0.00635562
5 *51:213 0.0075082
6 *51:201 0.00765709
7 *51:183 0.0077017
8 *51:167 0.00850428
9 *51:153 0.00979272
10 *51:141 0.00904002
11 *51:129 0.00826686
12 *51:117 0.00628906
13 *51:103 0.00617433
14 *51:89 0.00895704
15 *51:81 0.00798753
16 *51:73 0.0051
17 *51:59 0.00676429
18 *51:45 0.00905869
19 *51:31 0.0141279
20 *51:29 0.00983252
21 *51:27 0.0122725
22 *51:25 0.0125347
23 *51:19 0.00960837
24 *51:17 0.0100984
25 *51:11 0.00576812
26 *51:7 0.00537669
27 *51:11 *66:9 0
28 *51:11 *69:9 0
29 *51:19 *52:8 0
30 *51:19 *52:10 0.0318263
31 *51:31 *53:16 0
32 *51:31 *89:13 0.0858913
33 *51:31 *90:19 0.286268
34 *51:229 *89:17 0.0164956
35 *17:13 *51:27 0.0168067
36 *18:13 *51:27 0.0144269
37 *21:13 *51:27 0.0974662
38 *25:13 *51:27 0.00392403
*RES
1 *419:io_oeb_low[0] *51:7 7.464 
2 *51:7 *51:11 49.116 
3 *51:11 *51:17 10.324 
4 *51:17 *51:19 125.32 
5 *51:19 *51:25 11.184 
6 *51:25 *51:27 265.304 
7 *51:27 *51:29 4.5 
8 *51:29 *51:31 722.904 
9 *51:31 *51:45 48.444 
10 *51:45 *51:59 47.168 
11 *51:59 *51:73 30.764 
12 *51:73 *51:81 34.168 
13 *51:81 *51:89 48.728 
14 *51:89 *51:103 47.612 
15 *51:103 *51:117 31.18 
16 *51:117 *51:129 48.34 
17 *51:129 *51:141 47.924 
18 *51:141 *51:153 49.976 
19 *51:153 *51:167 46.752 
20 *51:167 *51:183 48.16 
21 *51:183 *51:201 48.652 
22 *51:201 *51:213 44.18 
23 *51:213 *51:225 45.844 
24 *51:225 *51:229 45.996 
25 *51:229 io_oeb[20] 9.412 
*END

*D_NET *52 0.472108
*CONN
*P io_oeb[21] O
*I *419:io_oeb_low[1] O *D J1Asic
*CAP
1 io_oeb[21] 0.00111232
2 *419:io_oeb_low[1] 0.00255997
3 *52:18 0.00376903
4 *52:14 0.124303
5 *52:12 0.121647
6 *52:10 0.0230091
7 *52:8 0.0255691
8 *52:10 *103:6 0.000613333
9 *52:10 *106:12 0.104053
10 *52:10 *107:12 0.000178927
11 *52:18 *53:20 0.00318408
12 *52:18 *89:17 0.0126261
13 *15:17 *52:10 0.0176567
14 *17:13 *52:10 0
15 *51:19 *52:8 0
16 *51:19 *52:10 0.0318263
*RES
1 *419:io_oeb_low[1] *52:8 27.692 
2 *52:8 *52:10 359.008 
3 *52:10 *52:12 4.5 
4 *52:12 *52:14 1088.78 
5 *52:14 *52:18 46.412 
6 *52:18 io_oeb[21] 13.912 
*END

*D_NET *53 0.500283
*CONN
*P io_oeb[22] O
*I *419:io_oeb_high[0] O *D J1Asic
*CAP
1 io_oeb[22] 0.00113656
2 *419:io_oeb_high[0] 4.87348e-05
3 *53:20 0.0105899
4 *53:18 0.00945333
5 *53:16 0.111876
6 *53:14 0.111876
7 *53:12 0.0214351
8 *53:10 0.0214838
9 *53:12 *60:15 0
10 *53:12 *314:17 0.00152426
11 *53:16 *89:13 0
12 *53:16 *90:19 0.022464
13 *419:pmodA_read[5] *53:12 0.000383732
14 *15:11 *53:20 0.000215214
15 *22:13 *53:12 0.00156673
16 *26:13 *53:12 0.142246
17 *28:13 *53:12 0.0106411
18 *29:17 *53:12 0.0120662
19 *30:13 *53:12 0.00943054
20 *31:13 *53:12 0.00866201
21 *51:31 *53:16 0
22 *52:18 *53:20 0.00318408
*RES
1 *419:io_oeb_high[0] *53:10 13.8083 
2 *53:10 *53:12 151.168 
3 *53:12 *53:14 4.5 
4 *53:14 *53:16 1091.27 
5 *53:16 *53:18 4.5 
6 *53:18 *53:20 88.712 
7 *53:20 io_oeb[22] 14.12 
*END

*D_NET *54 0.499368
*CONN
*P io_oeb[23] O
*I *419:io_oeb_high[1] O *D J1Asic
*CAP
1 io_oeb[23] 0.0185903
2 *419:io_oeb_high[1] 0.000664352
3 *54:11 0.0185903
4 *54:9 0.0357359
5 *54:7 0.0364003
6 *54:9 *55:9 0.241005
7 *54:9 *57:9 0.00173832
8 *16:13 io_oeb[23] 0.00915819
9 *17:9 io_oeb[23] 0.137486
*RES
1 *419:io_oeb_high[1] *54:7 9.544 
2 *54:7 *54:9 614.744 
3 *54:9 *54:11 4.5 
4 *54:11 io_oeb[23] 367.796 
*END

*D_NET *55 0.574968
*CONN
*P io_oeb[24] O
*I *419:io_oeb_high[2] O *D J1Asic
*CAP
1 io_oeb[24] 0.000835756
2 *419:io_oeb_high[2] 0.000640126
3 *55:13 0.0293886
4 *55:11 0.0285529
5 *55:9 0.00256633
6 *55:7 0.00320645
7 *55:9 *57:9 0.245526
8 *55:9 *67:9 0
9 *55:13 *57:13 0.0232473
10 *54:9 *55:9 0.241005
*RES
1 *419:io_oeb_high[2] *55:7 9.336 
2 *55:7 *55:9 617.032 
3 *55:9 *55:11 4.5 
4 *55:11 *55:13 299.832 
5 *55:13 io_oeb[24] 12.04 
*END

*D_NET *56 0.75059
*CONN
*P io_oeb[25] O
*I *419:io_oeb_high[3] O *D J1Asic
*CAP
1 io_oeb[25] 0.00164085
2 *419:io_oeb_high[3] 0.000567801
3 *56:19 0.109373
4 *56:17 0.107732
5 *56:15 0.0131894
6 *56:13 0.0137572
7 *56:15 *60:15 0.225349
8 *56:15 *62:9 0.00778302
9 *56:15 *63:9 0.0167315
10 *56:15 *90:15 0.102979
11 *56:15 *100:9 0.0103593
12 *56:15 *101:9 0.0211891
13 *56:15 *102:9 0.0085622
14 *56:15 *313:11 0.00590496
15 *56:19 *101:13 0.0161515
16 *22:9 *56:19 0.059053
17 *25:9 *56:19 0.0182586
18 *26:13 *56:15 0
19 *27:13 *56:15 0.008196
20 *30:9 *56:19 0.00381233
*RES
1 *419:io_oeb_high[3] *56:13 16.8689 
2 *56:13 *56:15 200.346 
3 *56:15 *56:17 4.5 
4 *56:17 *56:19 956.997 
5 *56:19 io_oeb[25] 17.864 
*END

*D_NET *57 0.623851
*CONN
*P io_oeb[26] O
*I *419:io_oeb_high[4] O *D J1Asic
*CAP
1 io_oeb[26] 0.000902645
2 *419:io_oeb_high[4] 0.000595489
3 *57:13 0.0076597
4 *57:11 0.00675706
5 *57:9 0.0102076
6 *57:7 0.0108031
7 *57:9 *58:9 0.305971
8 *57:9 *67:9 0
9 *57:13 *58:13 0.0104433
10 *54:9 *57:9 0.00173832
11 *55:9 *57:9 0.245526
12 *55:13 *57:13 0.0232473
*RES
1 *419:io_oeb_high[4] *57:7 9.128 
2 *57:7 *57:9 768.872 
3 *57:9 *57:11 4.5 
4 *57:11 *57:13 142.792 
5 *57:13 io_oeb[26] 12.456 
*END

*D_NET *58 0.456333
*CONN
*P io_oeb[27] O
*I *419:io_oeb_high[5] O *D J1Asic
*CAP
1 io_oeb[27] 0.000969534
2 *419:io_oeb_high[5] 0.000550853
3 *58:13 0.00549637
4 *58:11 0.00452684
5 *58:9 0.0639121
6 *58:7 0.064463
7 *58:9 *67:9 0
8 *21:9 *58:13 0
9 *57:9 *58:9 0.305971
10 *57:13 *58:13 0.0104433
*RES
1 *419:io_oeb_high[5] *58:7 8.92 
2 *58:7 *58:9 934.44 
3 *58:9 *58:11 4.5 
4 *58:11 *58:13 64.376 
5 *58:13 io_oeb[27] 12.872 
*END

*D_NET *59 0.360651
*CONN
*P io_oeb[28] O
*I *419:io_oeb_high[6] O *D J1Asic
*CAP
1 io_oeb[28] 0.00142106
2 *419:io_oeb_high[6] 0.00058695
3 *59:13 0.102851
4 *59:11 0.10143
5 *59:9 0.031567
6 *59:7 0.032154
7 io_oeb[28] *67:13 0.000366746
8 *59:13 *65:25 0.0902739
*RES
1 *419:io_oeb_high[6] *59:7 9.752 
2 *59:7 *59:9 283.04 
3 *59:9 *59:11 4.5 
4 *59:11 *59:13 453.899 
5 *59:13 io_oeb[28] 20.5403 
*END

*D_NET *60 0.694084
*CONN
*P io_oeb[29] O
*I *419:io_oeb_high[7] O *D J1Asic
*CAP
1 io_oeb[29] 0.000869855
2 *419:io_oeb_high[7] 0.00039253
3 *60:27 0.0187791
4 *60:25 0.0198677
5 *60:19 0.0142004
6 *60:17 0.012242
7 *60:15 0.0354224
8 *60:13 0.035815
9 *60:15 *63:9 0.000914518
10 *60:15 *100:9 0.0017589
11 *60:15 *101:9 0.00044787
12 *60:15 *102:9 0.00124677
13 *60:19 *62:13 0.008228
14 *60:19 *64:10 0.00663247
15 *60:19 *100:15 0.00094614
16 *60:27 *65:29 0.0100704
17 *60:27 *67:13 0.00854774
18 *60:27 *100:21 0.152148
19 *60:27 *103:10 0.0600918
20 *26:9 *60:19 0.0787241
21 *26:13 *60:15 0
22 *27:13 *60:15 0.00139001
23 *53:12 *60:15 0
24 *56:15 *60:15 0.225349
*RES
1 *419:io_oeb_high[7] *60:13 16.5346 
2 *60:13 *60:15 252.108 
3 *60:15 *60:17 4.5 
4 *60:17 *60:19 199.959 
5 *60:19 *60:25 21.376 
6 *60:25 *60:27 442.312 
7 *60:27 io_oeb[29] 12.04 
*END

*D_NET *62 0.770788
*CONN
*P io_oeb[30] O
*I *419:pmodA_oeb[0] O *D J1Asic
*CAP
1 io_oeb[30] 0.00262901
2 *419:pmodA_oeb[0] 0.000616858
3 *62:13 0.0113205
4 *62:11 0.00869148
5 *62:9 0.00157812
6 *62:7 0.00219498
7 *62:9 *69:9 0.0411857
8 *62:9 *90:15 0.00750369
9 *62:9 *102:9 0.194719
10 *62:9 *313:11 0.0998785
11 *62:13 *64:10 0.157356